1

   Abaqus 2023                                  Date 31-May-2024   Time 16:30:25
   For use by DELFT UNIVERSITY OF TECHNOLOGY under license from Dassault Systemes or its subsidiary.

                                                                                 
                                                                                 
 STEP    1     INCREMENT     1     STEP TIME    0.00    


                        S T E P       1     S T A T I C   A N A L Y S I S


                                                                                          

     AUTOMATIC TIME CONTROL WITH -
          A SUGGESTED INITIAL TIME INCREMENT OF                1.000E-02
          AND A TOTAL TIME PERIOD OF                            1.00    
          THE MINIMUM TIME INCREMENT ALLOWED IS                1.000E-15
          THE MAXIMUM TIME INCREMENT ALLOWED IS                0.100    

     LINEAR EQUATION SOLVER TYPE         DIRECT SPARSE

 CONVERGENCE TOLERANCE PARAMETERS FOR FORCE    
     CRITERION FOR RESIDUAL FORCE     FOR A NONLINEAR PROBLEM          5.000E-03
     CRITERION FOR DISP.    CORRECTION IN A NONLINEAR PROBLEM          1.000E-02
     INITIAL VALUE OF TIME AVERAGE FORCE                               1.000E-02
     AVERAGE FORCE     IS TIME AVERAGE FORCE    
     ALTERNATE CRIT. FOR RESIDUAL FORCE     FOR A NONLINEAR PROBLEM    2.000E-02
     CRITERION FOR ZERO FORCE     RELATIVE TO TIME AVRG. FORCE         1.000E-05
     CRITERION FOR RESIDUAL FORCE     WHEN THERE IS ZERO FLUX          1.000E-05
     CRITERION FOR DISP.    CORRECTION WHEN THERE IS ZERO FLUX         1.000E-03
     CRITERION FOR RESIDUAL FORCE     FOR A LINEAR INCREMENT           1.000E-08
     FIELD CONVERSION RATIO                                             1.00    
     CRITERION FOR ZERO FORCE     REL. TO TIME AVRG. MAX. FORCE        1.000E-05
     CRITERION FOR ZERO DISP.    RELATIVE TO CHARACTERISTIC LENGTH     1.000E-08

 CONVERGENCE TOLERANCE PARAMETERS FOR MOMENT   
     CRITERION FOR RESIDUAL MOMENT    FOR A NONLINEAR PROBLEM          5.000E-03
     CRITERION FOR ROTATION CORRECTION IN A NONLINEAR PROBLEM          1.000E-02
     INITIAL VALUE OF TIME AVERAGE MOMENT                              1.000E-02
     AVERAGE MOMENT    IS TIME AVERAGE MOMENT   
     ALTERNATE CRIT. FOR RESIDUAL MOMENT    FOR A NONLINEAR PROBLEM    2.000E-02
     CRITERION FOR ZERO MOMENT    RELATIVE TO TIME AVRG. MOMENT        1.000E-05
     CRITERION FOR RESIDUAL MOMENT    WHEN THERE IS ZERO FLUX          1.000E-05
     CRITERION FOR ROTATION CORRECTION WHEN THERE IS ZERO FLUX         1.000E-03
     CRITERION FOR RESIDUAL MOMENT    FOR A LINEAR INCREMENT           1.000E-08
     FIELD CONVERSION RATIO                                             1.00    
     CRITERION FOR ZERO MOMENT    REL. TO TIME AVRG. MAX. MOMENT       1.000E-05

     VOLUMETRIC STRAIN COMPATIBILITY TOLERANCE FOR HYBRID SOLIDS       1.000E-05
     AXIAL STRAIN COMPATIBILITY TOLERANCE FOR HYBRID BEAMS             1.000E-05
     TRANS. SHEAR STRAIN COMPATIBILITY TOLERANCE FOR HYBRID BEAMS      1.000E-05
     SOFT CONTACT CONSTRAINT COMPATIBILITY TOLERANCE FOR P>P0          5.000E-03
     SOFT CONTACT CONSTRAINT COMPATIBILITY TOLERANCE FOR P=0.0         0.100    
     CONTACT FORCE ERROR TOLERANCE FOR CONVERT SDI=YES                 1.00    
     DISPLACEMENT COMPATIBILITY TOLERANCE FOR DCOUP ELEMENTS           1.000E-05
     ROTATION COMPATIBILITY TOLERANCE FOR DCOUP ELEMENTS               1.000E-05

 EQUILIBRIUM WILL BE CHECKED FOR SEVERE DISCONTINUITY ITERATIONS

 TIME INCREMENTATION CONTROL PARAMETERS:
     FIRST EQUILIBRIUM ITERATION FOR CONSECUTIVE DIVERGENCE CHECK              4
     EQUILIBRIUM ITERATION AT WHICH LOG. CONVERGENCE RATE CHECK BEGINS         8
     EQUILIBRIUM ITERATION AFTER WHICH ALTERNATE RESIDUAL IS USED              9
     MAXIMUM EQUILIBRIUM ITERATIONS ALLOWED                                   16
     EQUILIBRIUM ITERATION COUNT FOR CUT-BACK IN NEXT INCREMENT               10
     MAXIMUM EQUILIB. ITERS IN TWO INCREMENTS FOR TIME INCREMENT INCREASE      4
     MAXIMUM ITERATIONS FOR SEVERE DISCONTINUITIES                            50
     MAXIMUM ATTEMPTS ALLOWED IN AN INCREMENT                                  5
     MAXIMUM DISCON. ITERS IN TWO INCREMENTS FOR TIME INCREMENT INCREASE      50
     MAXIMUM CONTACT AUGMENTATIONS FOR *SURFACE BEHAVIOR,AUGMENTED LAGRANGE   50
     CUT-BACK FACTOR AFTER DIVERGENCE                                 0.2500    
     CUT-BACK FACTOR FOR TOO SLOW CONVERGENCE                         0.5000    
     CUT-BACK FACTOR AFTER TOO MANY EQUILIBRIUM ITERATIONS            0.7500    
     CUT-BACK FACTOR AFTER TOO MANY SEVERE DISCONTINUITY ITERATIONS   0.2500    
     CUT-BACK FACTOR AFTER PROBLEMS IN ELEMENT ASSEMBLY               0.2500    
     INCREASE FACTOR AFTER TWO INCREMENTS THAT CONVERGE QUICKLY        1.500    
     MAX. TIME INCREMENT INCREASE FACTOR ALLOWED                       1.500    
     MAX. TIME INCREMENT INCREASE FACTOR ALLOWED (DYNAMICS)            1.250    
     MAX. TIME INCREMENT INCREASE FACTOR ALLOWED (DIFFUSION)           2.000    
     MINIMUM TIME INCREMENT RATIO FOR EXTRAPOLATION TO OCCUR          0.1000    
     MAX. RATIO OF TIME INCREMENT TO STABILITY LIMIT                   1.000    
     FRACTION OF STABILITY LIMIT FOR NEW TIME INCREMENT               0.9500    
     TIME INCREMENT INCREASE FACTOR BEFORE A TIME POINT                1.000    
     GLOBAL STABILIZATION CONTROL IS NOT USED

          PRINT OF INCREMENT NUMBER, TIME, ETC., EVERY    1  INCREMENTS

     THE MAXIMUM NUMBER OF INCREMENTS IN THIS STEP IS                     100

     LINEAR EXTRAPOLATION WILL BE USED

     CHARACTERISTIC ELEMENT LENGTH     0.116    

     DETAILS REGARDING ACTUAL SOLUTION WAVEFRONT REQUESTED

     DETAILED OUTPUT OF DIAGNOSTICS TO DATABASE REQUESTED

     PRINT OF INCREMENT NUMBER, TIME, ETC., TO THE MESSAGE FILE EVERY     1  INCREMENTS

     COLLECTING MODEL CONSTRAINT INFORMATION FOR OVERCONSTRAINT CHECKS

     COLLECTING STEP CONSTRAINT INFORMATION FOR OVERCONSTRAINT CHECKS


  INCREMENT     1 STARTS. ATTEMPT NUMBER  1, TIME INCREMENT  1.000E-02
 
	SYMMETRIC DIRECT SPARSE SOLVER RUNNING ON
 	1 HOST:        1 MPI RANK  x 1 THREAD
 	NUMBER OF EQUATIONS:     19290
 	NUMBER OF RHS:           1
 	NUMBER OF FLOPS:         7.297e+08

     CHECK POINT  START OF SOLVER     

     CHECK POINT  END OF SOLVER       

       ELAPSED USER TIME (SEC)      =  0.10000    
       ELAPSED SYSTEM TIME (SEC)    =   0.0000    
       ELAPSED TOTAL CPU TIME (SEC) =  0.10000    
       ELAPSED WALLCLOCK TIME (SEC) =            1

               CONVERGENCE CHECKS FOR EQUILIBRIUM ITERATION     1


 AVERAGE FORCE                       1.91       TIME AVG. FORCE        1.91    
 LARGEST RESIDUAL FORCE            -4.443E-10   AT NODE        245   DOF  3
   INSTANCE: LOWER_SKIN-INSTANCE                                                             
 LARGEST INCREMENT OF DISP.        -8.459E-02   AT NODE        982   DOF  3
   INSTANCE: UPPER_SKIN-INSTANCE                                                             
 LARGEST CORRECTION TO DISP.       -8.459E-02   AT NODE        982   DOF  3
   INSTANCE: UPPER_SKIN-INSTANCE                                                             
          THE FORCE     EQUILIBRIUM RESPONSE WAS LINEAR IN THIS INCREMENT

 AVERAGE MOMENT                     9.960E-03   TIME AVG. MOMENT      9.960E-03
 LARGEST RESIDUAL MOMENT           -1.077E-11   AT NODE       1004   DOF  4
   INSTANCE: UPPER_SKIN-INSTANCE                                                             
 LARGEST INCREMENT OF ROTATION     -0.135       AT NODE        980   DOF  5
   INSTANCE: UPPER_SKIN-INSTANCE                                                             
 LARGEST CORRECTION TO ROTATION    -0.135       AT NODE        980   DOF  5
   INSTANCE: UPPER_SKIN-INSTANCE                                                             
          THE MOMENT    EQUILIBRIUM RESPONSE WAS LINEAR IN THIS INCREMENT

 ITERATION SUMMARY FOR THE INCREMENT:   1 TOTAL ITERATIONS, OF WHICH
   0 ARE SEVERE DISCONTINUITY ITERATIONS AND  1 ARE EQUILIBRIUM ITERATIONS.

 TIME INCREMENT COMPLETED  1.000E-02,  FRACTION OF STEP COMPLETED  1.000E-02
 STEP TIME COMPLETED       1.000E-02,  TOTAL TIME COMPLETED        1.000E-02


  INCREMENT     2 STARTS. ATTEMPT NUMBER  1, TIME INCREMENT  1.000E-02
 
	SYMMETRIC DIRECT SPARSE SOLVER RUNNING ON
 	1 HOST:        1 MPI RANK  x 1 THREAD
 	NUMBER OF EQUATIONS:     19290
 	NUMBER OF RHS:           1
 	NUMBER OF FLOPS:         7.297e+08

     CHECK POINT  START OF SOLVER     

     CHECK POINT  END OF SOLVER       

       ELAPSED USER TIME (SEC)      =   0.0000    
       ELAPSED SYSTEM TIME (SEC)    =   0.0000    
       ELAPSED TOTAL CPU TIME (SEC) =   0.0000    
       ELAPSED WALLCLOCK TIME (SEC) =            0

               CONVERGENCE CHECKS FOR EQUILIBRIUM ITERATION     1


 AVERAGE FORCE                       9.22       TIME AVG. FORCE        5.57    
 LARGEST RESIDUAL FORCE            -1.959E-10   AT NODE       1009   DOF  3
   INSTANCE: UPPER_SKIN-INSTANCE                                                             
 LARGEST INCREMENT OF DISP.        -8.459E-02   AT NODE        982   DOF  3
   INSTANCE: UPPER_SKIN-INSTANCE                                                             
 LARGEST CORRECTION TO DISP.        5.136E-12   AT NODE       1010   DOF  3
   INSTANCE: UPPER_SKIN-INSTANCE                                                             
          THE FORCE     EQUILIBRIUM RESPONSE WAS LINEAR IN THIS INCREMENT

 AVERAGE MOMENT                     2.001E-02   TIME AVG. MOMENT      1.498E-02
 LARGEST RESIDUAL MOMENT           -9.431E-12   AT NODE       1016   DOF  4
   INSTANCE: UPPER_SKIN-INSTANCE                                                             
 LARGEST INCREMENT OF ROTATION     -0.135       AT NODE        980   DOF  5
   INSTANCE: UPPER_SKIN-INSTANCE                                                             
 LARGEST CORRECTION TO ROTATION     1.296E-11   AT NODE        981   DOF  4
   INSTANCE: UPPER_SKIN-INSTANCE                                                             
          THE MOMENT    EQUILIBRIUM RESPONSE WAS LINEAR IN THIS INCREMENT
          TIME INCREMENT MAY NOW INCREASE TO    1.500E-02

 ITERATION SUMMARY FOR THE INCREMENT:   1 TOTAL ITERATIONS, OF WHICH
   0 ARE SEVERE DISCONTINUITY ITERATIONS AND  1 ARE EQUILIBRIUM ITERATIONS.

 TIME INCREMENT COMPLETED  1.000E-02,  FRACTION OF STEP COMPLETED  2.000E-02
 STEP TIME COMPLETED       2.000E-02,  TOTAL TIME COMPLETED        2.000E-02


  INCREMENT     3 STARTS. ATTEMPT NUMBER  1, TIME INCREMENT  1.500E-02
 
	SYMMETRIC DIRECT SPARSE SOLVER RUNNING ON
 	1 HOST:        1 MPI RANK  x 1 THREAD
 	NUMBER OF EQUATIONS:     19290
 	NUMBER OF RHS:           1
 	NUMBER OF FLOPS:         7.297e+08

     CHECK POINT  START OF SOLVER     

     CHECK POINT  END OF SOLVER       

       ELAPSED USER TIME (SEC)      =   0.0000    
       ELAPSED SYSTEM TIME (SEC)    =   0.0000    
       ELAPSED TOTAL CPU TIME (SEC) =   0.0000    
       ELAPSED WALLCLOCK TIME (SEC) =            0

               CONVERGENCE CHECKS FOR EQUILIBRIUM ITERATION     1


 AVERAGE FORCE                       15.8       TIME AVG. FORCE        8.98    
 LARGEST RESIDUAL FORCE             4.007E-10   AT NODE       1004   DOF  3
   INSTANCE: UPPER_SKIN-INSTANCE                                                             
 LARGEST INCREMENT OF DISP.        -0.127       AT NODE        982   DOF  3
   INSTANCE: UPPER_SKIN-INSTANCE                                                             
 LARGEST CORRECTION TO DISP.       -3.852E-12   AT NODE       1010   DOF  3
   INSTANCE: UPPER_SKIN-INSTANCE                                                             
          THE FORCE     EQUILIBRIUM RESPONSE WAS LINEAR IN THIS INCREMENT

 AVERAGE MOMENT                     3.500E-02   TIME AVG. MOMENT      2.166E-02
 LARGEST RESIDUAL MOMENT            1.145E-11   AT NODE       1011   DOF  4
   INSTANCE: UPPER_SKIN-INSTANCE                                                             
 LARGEST INCREMENT OF ROTATION     -0.202       AT NODE        980   DOF  5
   INSTANCE: UPPER_SKIN-INSTANCE                                                             
 LARGEST CORRECTION TO ROTATION    -9.726E-12   AT NODE        981   DOF  4
   INSTANCE: UPPER_SKIN-INSTANCE                                                             
          THE MOMENT    EQUILIBRIUM RESPONSE WAS LINEAR IN THIS INCREMENT
          TIME INCREMENT MAY NOW INCREASE TO    2.250E-02

 ITERATION SUMMARY FOR THE INCREMENT:   1 TOTAL ITERATIONS, OF WHICH
   0 ARE SEVERE DISCONTINUITY ITERATIONS AND  1 ARE EQUILIBRIUM ITERATIONS.

 TIME INCREMENT COMPLETED  1.500E-02,  FRACTION OF STEP COMPLETED  3.500E-02
 STEP TIME COMPLETED       3.500E-02,  TOTAL TIME COMPLETED        3.500E-02


  INCREMENT     4 STARTS. ATTEMPT NUMBER  1, TIME INCREMENT  2.250E-02
 
	SYMMETRIC DIRECT SPARSE SOLVER RUNNING ON
 	1 HOST:        1 MPI RANK  x 1 THREAD
 	NUMBER OF EQUATIONS:     19290
 	NUMBER OF RHS:           1
 	NUMBER OF FLOPS:         7.297e+08

     CHECK POINT  START OF SOLVER     

     CHECK POINT  END OF SOLVER       

       ELAPSED USER TIME (SEC)      =  0.10000    
       ELAPSED SYSTEM TIME (SEC)    =   0.0000    
       ELAPSED TOTAL CPU TIME (SEC) =  0.10000    
       ELAPSED WALLCLOCK TIME (SEC) =            0

               CONVERGENCE CHECKS FOR EQUILIBRIUM ITERATION     1


 AVERAGE FORCE                       25.9       TIME AVG. FORCE        13.2    
 LARGEST RESIDUAL FORCE            -3.487E-10   AT NODE        940   DOF  3
   INSTANCE: UPPER_SKIN-INSTANCE                                                             
 LARGEST INCREMENT OF DISP.        -0.190       AT NODE        982   DOF  3
   INSTANCE: UPPER_SKIN-INSTANCE                                                             
 LARGEST CORRECTION TO DISP.        4.297E-16   AT NODE       1004   DOF  3
   INSTANCE: UPPER_SKIN-INSTANCE                                                             
          THE FORCE     EQUILIBRIUM RESPONSE WAS LINEAR IN THIS INCREMENT

 AVERAGE MOMENT                     5.748E-02   TIME AVG. MOMENT      3.061E-02
 LARGEST RESIDUAL MOMENT           -1.009E-11   AT NODE       1016   DOF  4
   INSTANCE: UPPER_SKIN-INSTANCE                                                             
 LARGEST INCREMENT OF ROTATION     -0.303       AT NODE        980   DOF  5
   INSTANCE: UPPER_SKIN-INSTANCE                                                             
 LARGEST CORRECTION TO ROTATION    -5.605E-15   AT NODE        990   DOF  4
   INSTANCE: UPPER_SKIN-INSTANCE                                                             
          THE MOMENT    EQUILIBRIUM RESPONSE WAS LINEAR IN THIS INCREMENT
          TIME INCREMENT MAY NOW INCREASE TO    3.375E-02

 ITERATION SUMMARY FOR THE INCREMENT:   1 TOTAL ITERATIONS, OF WHICH
   0 ARE SEVERE DISCONTINUITY ITERATIONS AND  1 ARE EQUILIBRIUM ITERATIONS.

 TIME INCREMENT COMPLETED  2.250E-02,  FRACTION OF STEP COMPLETED  5.750E-02
 STEP TIME COMPLETED       5.750E-02,  TOTAL TIME COMPLETED        5.750E-02


  INCREMENT     5 STARTS. ATTEMPT NUMBER  1, TIME INCREMENT  3.375E-02
 
	SYMMETRIC DIRECT SPARSE SOLVER RUNNING ON
 	1 HOST:        1 MPI RANK  x 1 THREAD
 	NUMBER OF EQUATIONS:     19290
 	NUMBER OF RHS:           1
 	NUMBER OF FLOPS:         7.297e+08

     CHECK POINT  START OF SOLVER     

     CHECK POINT  END OF SOLVER       

       ELAPSED USER TIME (SEC)      =   0.0000    
       ELAPSED SYSTEM TIME (SEC)    =   0.0000    
       ELAPSED TOTAL CPU TIME (SEC) =   0.0000    
       ELAPSED WALLCLOCK TIME (SEC) =            0

               CONVERGENCE CHECKS FOR EQUILIBRIUM ITERATION     1


 AVERAGE FORCE                       40.9       TIME AVG. FORCE        18.8    
 LARGEST RESIDUAL FORCE             6.193E-10   AT NODE        976   DOF  3
   INSTANCE: UPPER_SKIN-INSTANCE                                                             
 LARGEST INCREMENT OF DISP.        -0.285       AT NODE        982   DOF  3
   INSTANCE: UPPER_SKIN-INSTANCE                                                             
 LARGEST CORRECTION TO DISP.       -5.295E-16   AT NODE        713   DOF  3
   INSTANCE: UPPER_SKIN-INSTANCE                                                             
          THE FORCE     EQUILIBRIUM RESPONSE WAS LINEAR IN THIS INCREMENT

 AVERAGE MOMENT                     9.120E-02   TIME AVG. MOMENT      4.273E-02
 LARGEST RESIDUAL MOMENT            2.469E-11   AT NODE       1019   DOF  4
   INSTANCE: UPPER_SKIN-INSTANCE                                                             
 LARGEST INCREMENT OF ROTATION     -0.454       AT NODE        980   DOF  5
   INSTANCE: UPPER_SKIN-INSTANCE                                                             
 LARGEST CORRECTION TO ROTATION     1.165E-14   AT NODE        297   DOF  4
   INSTANCE: UPPER_SKIN-INSTANCE                                                             
          THE MOMENT    EQUILIBRIUM RESPONSE WAS LINEAR IN THIS INCREMENT
          TIME INCREMENT MAY NOW INCREASE TO    5.063E-02

 ITERATION SUMMARY FOR THE INCREMENT:   1 TOTAL ITERATIONS, OF WHICH
   0 ARE SEVERE DISCONTINUITY ITERATIONS AND  1 ARE EQUILIBRIUM ITERATIONS.

 TIME INCREMENT COMPLETED  3.375E-02,  FRACTION OF STEP COMPLETED  9.125E-02
 STEP TIME COMPLETED       9.125E-02,  TOTAL TIME COMPLETED        9.125E-02


  INCREMENT     6 STARTS. ATTEMPT NUMBER  1, TIME INCREMENT  5.063E-02
 
	SYMMETRIC DIRECT SPARSE SOLVER RUNNING ON
 	1 HOST:        1 MPI RANK  x 1 THREAD
 	NUMBER OF EQUATIONS:     19290
 	NUMBER OF RHS:           1
 	NUMBER OF FLOPS:         7.297e+08

     CHECK POINT  START OF SOLVER     

     CHECK POINT  END OF SOLVER       

       ELAPSED USER TIME (SEC)      =   0.0000    
       ELAPSED SYSTEM TIME (SEC)    =   0.0000    
       ELAPSED TOTAL CPU TIME (SEC) =   0.0000    
       ELAPSED WALLCLOCK TIME (SEC) =            0

               CONVERGENCE CHECKS FOR EQUILIBRIUM ITERATION     1


 AVERAGE FORCE                       62.7       TIME AVG. FORCE        26.1    
 LARGEST RESIDUAL FORCE            -1.189E-09   AT NODE        962   DOF  3
   INSTANCE: UPPER_SKIN-INSTANCE                                                             
 LARGEST INCREMENT OF DISP.        -0.428       AT NODE        982   DOF  3
   INSTANCE: UPPER_SKIN-INSTANCE                                                             
 LARGEST CORRECTION TO DISP.       -8.552E-16   AT NODE        656   DOF  3
   INSTANCE: UPPER_SKIN-INSTANCE                                                             
          THE FORCE     EQUILIBRIUM RESPONSE WAS LINEAR IN THIS INCREMENT

 AVERAGE MOMENT                     0.142       TIME AVG. MOMENT      5.923E-02
 LARGEST RESIDUAL MOMENT           -4.302E-11   AT NODE        983   DOF  4
   INSTANCE: UPPER_SKIN-INSTANCE                                                             
 LARGEST INCREMENT OF ROTATION     -0.681       AT NODE        980   DOF  5
   INSTANCE: UPPER_SKIN-INSTANCE                                                             
 LARGEST CORRECTION TO ROTATION    -2.807E-14   AT NODE        297   DOF  4
   INSTANCE: UPPER_SKIN-INSTANCE                                                             
          THE MOMENT    EQUILIBRIUM RESPONSE WAS LINEAR IN THIS INCREMENT
          TIME INCREMENT MAY NOW INCREASE TO    7.594E-02

 ITERATION SUMMARY FOR THE INCREMENT:   1 TOTAL ITERATIONS, OF WHICH
   0 ARE SEVERE DISCONTINUITY ITERATIONS AND  1 ARE EQUILIBRIUM ITERATIONS.

 TIME INCREMENT COMPLETED  5.063E-02,  FRACTION OF STEP COMPLETED  0.142    
 STEP TIME COMPLETED       0.142    ,  TOTAL TIME COMPLETED        0.142    


  INCREMENT     7 STARTS. ATTEMPT NUMBER  1, TIME INCREMENT  7.594E-02
 
	SYMMETRIC DIRECT SPARSE SOLVER RUNNING ON
 	1 HOST:        1 MPI RANK  x 1 THREAD
 	NUMBER OF EQUATIONS:     19290
 	NUMBER OF RHS:           1
 	NUMBER OF FLOPS:         7.297e+08

     CHECK POINT  START OF SOLVER     

     CHECK POINT  END OF SOLVER       

       ELAPSED USER TIME (SEC)      =   0.0000    
       ELAPSED SYSTEM TIME (SEC)    =   0.0000    
       ELAPSED TOTAL CPU TIME (SEC) =   0.0000    
       ELAPSED WALLCLOCK TIME (SEC) =            0

               CONVERGENCE CHECKS FOR EQUILIBRIUM ITERATION     1


 AVERAGE FORCE                       95.2       TIME AVG. FORCE        36.0    
 LARGEST RESIDUAL FORCE             1.333E-09   AT NODE        997   DOF  3
   INSTANCE: UPPER_SKIN-INSTANCE                                                             
 LARGEST INCREMENT OF DISP.        -0.642       AT NODE        982   DOF  3
   INSTANCE: UPPER_SKIN-INSTANCE                                                             
 LARGEST CORRECTION TO DISP.        1.841E-15   AT NODE        988   DOF  3
   INSTANCE: UPPER_SKIN-INSTANCE                                                             
          THE FORCE     EQUILIBRIUM RESPONSE WAS LINEAR IN THIS INCREMENT

 AVERAGE MOMENT                     0.218       TIME AVG. MOMENT      8.186E-02
 LARGEST RESIDUAL MOMENT           -3.510E-11   AT NODE        962   DOF  4
   INSTANCE: UPPER_SKIN-INSTANCE                                                             
 LARGEST INCREMENT OF ROTATION      -1.02       AT NODE        980   DOF  5
   INSTANCE: UPPER_SKIN-INSTANCE                                                             
 LARGEST CORRECTION TO ROTATION     3.799E-14   AT NODE        654   DOF  4
   INSTANCE: UPPER_SKIN-INSTANCE                                                             
          THE MOMENT    EQUILIBRIUM RESPONSE WAS LINEAR IN THIS INCREMENT
          TIME INCREMENT MAY NOW INCREASE TO    0.100    

 ITERATION SUMMARY FOR THE INCREMENT:   1 TOTAL ITERATIONS, OF WHICH
   0 ARE SEVERE DISCONTINUITY ITERATIONS AND  1 ARE EQUILIBRIUM ITERATIONS.

 TIME INCREMENT COMPLETED  7.594E-02,  FRACTION OF STEP COMPLETED  0.218    
 STEP TIME COMPLETED       0.218    ,  TOTAL TIME COMPLETED        0.218    


  INCREMENT     8 STARTS. ATTEMPT NUMBER  1, TIME INCREMENT  0.100    
 
	SYMMETRIC DIRECT SPARSE SOLVER RUNNING ON
 	1 HOST:        1 MPI RANK  x 1 THREAD
 	NUMBER OF EQUATIONS:     19290
 	NUMBER OF RHS:           1
 	NUMBER OF FLOPS:         7.297e+08

     CHECK POINT  START OF SOLVER     

     CHECK POINT  END OF SOLVER       

       ELAPSED USER TIME (SEC)      =   0.0000    
       ELAPSED SYSTEM TIME (SEC)    =   0.0000    
       ELAPSED TOTAL CPU TIME (SEC) =   0.0000    
       ELAPSED WALLCLOCK TIME (SEC) =            0

               CONVERGENCE CHECKS FOR EQUILIBRIUM ITERATION     1


 AVERAGE FORCE                       138.       TIME AVG. FORCE        48.7    
 LARGEST RESIDUAL FORCE            -2.309E-09   AT NODE        960   DOF  3
   INSTANCE: UPPER_SKIN-INSTANCE                                                             
 LARGEST INCREMENT OF DISP.        -0.846       AT NODE        982   DOF  3
   INSTANCE: UPPER_SKIN-INSTANCE                                                             
 LARGEST CORRECTION TO DISP.       -2.417E-15   AT NODE        691   DOF  3
   INSTANCE: UPPER_SKIN-INSTANCE                                                             
          THE FORCE     EQUILIBRIUM RESPONSE WAS LINEAR IN THIS INCREMENT

 AVERAGE MOMENT                     0.317       TIME AVG. MOMENT      0.111    
 LARGEST RESIDUAL MOMENT           -7.851E-11   AT NODE        961   DOF  4
   INSTANCE: UPPER_SKIN-INSTANCE                                                             
 LARGEST INCREMENT OF ROTATION      -1.35       AT NODE        980   DOF  5
   INSTANCE: UPPER_SKIN-INSTANCE                                                             
 LARGEST CORRECTION TO ROTATION     4.060E-14   AT NODE       1446   DOF  4
   INSTANCE: UPPER_SKIN-INSTANCE                                                             
          THE MOMENT    EQUILIBRIUM RESPONSE WAS LINEAR IN THIS INCREMENT

 ITERATION SUMMARY FOR THE INCREMENT:   1 TOTAL ITERATIONS, OF WHICH
   0 ARE SEVERE DISCONTINUITY ITERATIONS AND  1 ARE EQUILIBRIUM ITERATIONS.

 TIME INCREMENT COMPLETED  0.100    ,  FRACTION OF STEP COMPLETED  0.318    
 STEP TIME COMPLETED       0.318    ,  TOTAL TIME COMPLETED        0.318    


  INCREMENT     9 STARTS. ATTEMPT NUMBER  1, TIME INCREMENT  0.100    
 
	SYMMETRIC DIRECT SPARSE SOLVER RUNNING ON
 	1 HOST:        1 MPI RANK  x 1 THREAD
 	NUMBER OF EQUATIONS:     19290
 	NUMBER OF RHS:           1
 	NUMBER OF FLOPS:         7.297e+08

     CHECK POINT  START OF SOLVER     

     CHECK POINT  END OF SOLVER       

       ELAPSED USER TIME (SEC)      =   0.0000    
       ELAPSED SYSTEM TIME (SEC)    =   0.0000    
       ELAPSED TOTAL CPU TIME (SEC) =   0.0000    
       ELAPSED WALLCLOCK TIME (SEC) =            0

               CONVERGENCE CHECKS FOR EQUILIBRIUM ITERATION     1


 AVERAGE FORCE                       182.       TIME AVG. FORCE        63.5    
 LARGEST RESIDUAL FORCE            -2.380E-09   AT NODE       1059   DOF  3
   INSTANCE: UPPER_SKIN-INSTANCE                                                             
 LARGEST INCREMENT OF DISP.        -0.846       AT NODE        982   DOF  3
   INSTANCE: UPPER_SKIN-INSTANCE                                                             
 LARGEST CORRECTION TO DISP.        6.000E-15   AT NODE        694   DOF  3
   INSTANCE: UPPER_SKIN-INSTANCE                                                             
          THE FORCE     EQUILIBRIUM RESPONSE WAS LINEAR IN THIS INCREMENT

 AVERAGE MOMENT                     0.417       TIME AVG. MOMENT      0.145    
 LARGEST RESIDUAL MOMENT           -5.318E-11   AT NODE        982   DOF  4
   INSTANCE: UPPER_SKIN-INSTANCE                                                             
 LARGEST INCREMENT OF ROTATION      -1.35       AT NODE        980   DOF  5
   INSTANCE: UPPER_SKIN-INSTANCE                                                             
 LARGEST CORRECTION TO ROTATION     5.198E-14   AT NODE       1046   DOF  4
   INSTANCE: UPPER_SKIN-INSTANCE                                                             
          THE MOMENT    EQUILIBRIUM RESPONSE WAS LINEAR IN THIS INCREMENT

 ITERATION SUMMARY FOR THE INCREMENT:   1 TOTAL ITERATIONS, OF WHICH
   0 ARE SEVERE DISCONTINUITY ITERATIONS AND  1 ARE EQUILIBRIUM ITERATIONS.

 TIME INCREMENT COMPLETED  0.100    ,  FRACTION OF STEP COMPLETED  0.418    
 STEP TIME COMPLETED       0.418    ,  TOTAL TIME COMPLETED        0.418    


  INCREMENT    10 STARTS. ATTEMPT NUMBER  1, TIME INCREMENT  0.100    
 
	SYMMETRIC DIRECT SPARSE SOLVER RUNNING ON
 	1 HOST:        1 MPI RANK  x 1 THREAD
 	NUMBER OF EQUATIONS:     19290
 	NUMBER OF RHS:           1
 	NUMBER OF FLOPS:         7.297e+08

     CHECK POINT  START OF SOLVER     

     CHECK POINT  END OF SOLVER       

       ELAPSED USER TIME (SEC)      =   0.0000    
       ELAPSED SYSTEM TIME (SEC)    =   0.0000    
       ELAPSED TOTAL CPU TIME (SEC) =   0.0000    
       ELAPSED WALLCLOCK TIME (SEC) =            0

               CONVERGENCE CHECKS FOR EQUILIBRIUM ITERATION     1


 AVERAGE FORCE                       227.       TIME AVG. FORCE        79.9    
 LARGEST RESIDUAL FORCE            -3.629E-09   AT NODE       1004   DOF  3
   INSTANCE: UPPER_SKIN-INSTANCE                                                             
 LARGEST INCREMENT OF DISP.        -0.846       AT NODE        982   DOF  3
   INSTANCE: UPPER_SKIN-INSTANCE                                                             
 LARGEST CORRECTION TO DISP.        6.257E-15   AT NODE        961   DOF  3
   INSTANCE: UPPER_SKIN-INSTANCE                                                             
          THE FORCE     EQUILIBRIUM RESPONSE WAS LINEAR IN THIS INCREMENT

 AVERAGE MOMENT                     0.517       TIME AVG. MOMENT      0.183    
 LARGEST RESIDUAL MOMENT            1.277E-10   AT NODE        983   DOF  4
   INSTANCE: UPPER_SKIN-INSTANCE                                                             
 LARGEST INCREMENT OF ROTATION      -1.35       AT NODE        980   DOF  5
   INSTANCE: UPPER_SKIN-INSTANCE                                                             
 LARGEST CORRECTION TO ROTATION    -6.876E-14   AT NODE       1095   DOF  4
   INSTANCE: UPPER_SKIN-INSTANCE                                                             
          THE MOMENT    EQUILIBRIUM RESPONSE WAS LINEAR IN THIS INCREMENT

 ITERATION SUMMARY FOR THE INCREMENT:   1 TOTAL ITERATIONS, OF WHICH
   0 ARE SEVERE DISCONTINUITY ITERATIONS AND  1 ARE EQUILIBRIUM ITERATIONS.

 TIME INCREMENT COMPLETED  0.100    ,  FRACTION OF STEP COMPLETED  0.518    
 STEP TIME COMPLETED       0.518    ,  TOTAL TIME COMPLETED        0.518    


  INCREMENT    11 STARTS. ATTEMPT NUMBER  1, TIME INCREMENT  0.100    
 
	SYMMETRIC DIRECT SPARSE SOLVER RUNNING ON
 	1 HOST:        1 MPI RANK  x 1 THREAD
 	NUMBER OF EQUATIONS:     19290
 	NUMBER OF RHS:           1
 	NUMBER OF FLOPS:         7.297e+08

     CHECK POINT  START OF SOLVER     

     CHECK POINT  END OF SOLVER       

       ELAPSED USER TIME (SEC)      =   0.0000    
       ELAPSED SYSTEM TIME (SEC)    =   0.0000    
       ELAPSED TOTAL CPU TIME (SEC) =   0.0000    
       ELAPSED WALLCLOCK TIME (SEC) =            0

               CONVERGENCE CHECKS FOR EQUILIBRIUM ITERATION     1


 AVERAGE FORCE                       272.       TIME AVG. FORCE        97.4    
 LARGEST RESIDUAL FORCE            -4.425E-09   AT NODE       1004   DOF  3
   INSTANCE: UPPER_SKIN-INSTANCE                                                             
 LARGEST INCREMENT OF DISP.        -0.846       AT NODE        982   DOF  3
   INSTANCE: UPPER_SKIN-INSTANCE                                                             
 LARGEST CORRECTION TO DISP.        4.260E-15   AT NODE       1009   DOF  3
   INSTANCE: UPPER_SKIN-INSTANCE                                                             
          THE FORCE     EQUILIBRIUM RESPONSE WAS LINEAR IN THIS INCREMENT

 AVERAGE MOMENT                     0.617       TIME AVG. MOMENT      0.222    
 LARGEST RESIDUAL MOMENT           -1.314E-10   AT NODE       1011   DOF  4
   INSTANCE: UPPER_SKIN-INSTANCE                                                             
 LARGEST INCREMENT OF ROTATION      -1.35       AT NODE        980   DOF  5
   INSTANCE: UPPER_SKIN-INSTANCE                                                             
 LARGEST CORRECTION TO ROTATION     1.219E-13   AT NODE        693   DOF  4
   INSTANCE: UPPER_SKIN-INSTANCE                                                             
          THE MOMENT    EQUILIBRIUM RESPONSE WAS LINEAR IN THIS INCREMENT

 ITERATION SUMMARY FOR THE INCREMENT:   1 TOTAL ITERATIONS, OF WHICH
   0 ARE SEVERE DISCONTINUITY ITERATIONS AND  1 ARE EQUILIBRIUM ITERATIONS.

 TIME INCREMENT COMPLETED  0.100    ,  FRACTION OF STEP COMPLETED  0.618    
 STEP TIME COMPLETED       0.618    ,  TOTAL TIME COMPLETED        0.618    


  INCREMENT    12 STARTS. ATTEMPT NUMBER  1, TIME INCREMENT  0.100    
 
	SYMMETRIC DIRECT SPARSE SOLVER RUNNING ON
 	1 HOST:        1 MPI RANK  x 1 THREAD
 	NUMBER OF EQUATIONS:     19290
 	NUMBER OF RHS:           1
 	NUMBER OF FLOPS:         7.297e+08

     CHECK POINT  START OF SOLVER     

     CHECK POINT  END OF SOLVER       

       ELAPSED USER TIME (SEC)      =   0.0000    
       ELAPSED SYSTEM TIME (SEC)    =   0.0000    
       ELAPSED TOTAL CPU TIME (SEC) =   0.0000    
       ELAPSED WALLCLOCK TIME (SEC) =            0

               CONVERGENCE CHECKS FOR EQUILIBRIUM ITERATION     1


 AVERAGE FORCE                       318.       TIME AVG. FORCE        116.    
 LARGEST RESIDUAL FORCE             4.487E-09   AT NODE        969   DOF  3
   INSTANCE: UPPER_SKIN-INSTANCE                                                             
 LARGEST INCREMENT OF DISP.        -0.846       AT NODE        982   DOF  3
   INSTANCE: UPPER_SKIN-INSTANCE                                                             
 LARGEST CORRECTION TO DISP.       -8.424E-15   AT NODE        975   DOF  3
   INSTANCE: UPPER_SKIN-INSTANCE                                                             
          THE FORCE     EQUILIBRIUM RESPONSE WAS LINEAR IN THIS INCREMENT

 AVERAGE MOMENT                     0.717       TIME AVG. MOMENT      0.263    
 LARGEST RESIDUAL MOMENT           -1.631E-10   AT NODE        962   DOF  4
   INSTANCE: UPPER_SKIN-INSTANCE                                                             
 LARGEST INCREMENT OF ROTATION      -1.35       AT NODE        980   DOF  5
   INSTANCE: UPPER_SKIN-INSTANCE                                                             
 LARGEST CORRECTION TO ROTATION     1.440E-13   AT NODE        646   DOF  4
   INSTANCE: UPPER_SKIN-INSTANCE                                                             
          THE MOMENT    EQUILIBRIUM RESPONSE WAS LINEAR IN THIS INCREMENT

 ITERATION SUMMARY FOR THE INCREMENT:   1 TOTAL ITERATIONS, OF WHICH
   0 ARE SEVERE DISCONTINUITY ITERATIONS AND  1 ARE EQUILIBRIUM ITERATIONS.

 TIME INCREMENT COMPLETED  0.100    ,  FRACTION OF STEP COMPLETED  0.718    
 STEP TIME COMPLETED       0.718    ,  TOTAL TIME COMPLETED        0.718    


  INCREMENT    13 STARTS. ATTEMPT NUMBER  1, TIME INCREMENT  0.100    
 
	SYMMETRIC DIRECT SPARSE SOLVER RUNNING ON
 	1 HOST:        1 MPI RANK  x 1 THREAD
 	NUMBER OF EQUATIONS:     19290
 	NUMBER OF RHS:           1
 	NUMBER OF FLOPS:         7.297e+08

     CHECK POINT  START OF SOLVER     

     CHECK POINT  END OF SOLVER       

       ELAPSED USER TIME (SEC)      =   0.0000    
       ELAPSED SYSTEM TIME (SEC)    =   0.0000    
       ELAPSED TOTAL CPU TIME (SEC) =   0.0000    
       ELAPSED WALLCLOCK TIME (SEC) =            0

               CONVERGENCE CHECKS FOR EQUILIBRIUM ITERATION     1


 AVERAGE FORCE                       365.       TIME AVG. FORCE        135.    
 LARGEST RESIDUAL FORCE             4.174E-09   AT NODE        969   DOF  3
   INSTANCE: UPPER_SKIN-INSTANCE                                                             
 LARGEST INCREMENT OF DISP.        -0.846       AT NODE        982   DOF  3
   INSTANCE: UPPER_SKIN-INSTANCE                                                             
 LARGEST CORRECTION TO DISP.       -7.254E-15   AT NODE        700   DOF  3
   INSTANCE: UPPER_SKIN-INSTANCE                                                             
          THE FORCE     EQUILIBRIUM RESPONSE WAS LINEAR IN THIS INCREMENT

 AVERAGE MOMENT                     0.817       TIME AVG. MOMENT      0.306    
 LARGEST RESIDUAL MOMENT           -1.184E-10   AT NODE        974   DOF  4
   INSTANCE: UPPER_SKIN-INSTANCE                                                             
 LARGEST INCREMENT OF ROTATION      -1.35       AT NODE        980   DOF  5
   INSTANCE: UPPER_SKIN-INSTANCE                                                             
 LARGEST CORRECTION TO ROTATION     1.225E-13   AT NODE        645   DOF  4
   INSTANCE: UPPER_SKIN-INSTANCE                                                             
          THE MOMENT    EQUILIBRIUM RESPONSE WAS LINEAR IN THIS INCREMENT

 ITERATION SUMMARY FOR THE INCREMENT:   1 TOTAL ITERATIONS, OF WHICH
   0 ARE SEVERE DISCONTINUITY ITERATIONS AND  1 ARE EQUILIBRIUM ITERATIONS.

 TIME INCREMENT COMPLETED  0.100    ,  FRACTION OF STEP COMPLETED  0.818    
 STEP TIME COMPLETED       0.818    ,  TOTAL TIME COMPLETED        0.818    


  INCREMENT    14 STARTS. ATTEMPT NUMBER  1, TIME INCREMENT  0.100    
 
	SYMMETRIC DIRECT SPARSE SOLVER RUNNING ON
 	1 HOST:        1 MPI RANK  x 1 THREAD
 	NUMBER OF EQUATIONS:     19290
 	NUMBER OF RHS:           1
 	NUMBER OF FLOPS:         7.297e+08

     CHECK POINT  START OF SOLVER     

     CHECK POINT  END OF SOLVER       

       ELAPSED USER TIME (SEC)      =  0.10000    
       ELAPSED SYSTEM TIME (SEC)    =   0.0000    
       ELAPSED TOTAL CPU TIME (SEC) =  0.10000    
       ELAPSED WALLCLOCK TIME (SEC) =            0

               CONVERGENCE CHECKS FOR EQUILIBRIUM ITERATION     1


 AVERAGE FORCE                       411.       TIME AVG. FORCE        155.    
 LARGEST RESIDUAL FORCE             5.142E-09   AT NODE       1137   DOF  3
   INSTANCE: UPPER_SKIN-INSTANCE                                                             
 LARGEST INCREMENT OF DISP.        -0.846       AT NODE        982   DOF  3
   INSTANCE: UPPER_SKIN-INSTANCE                                                             
 LARGEST CORRECTION TO DISP.        9.132E-15   AT NODE        649   DOF  3
   INSTANCE: UPPER_SKIN-INSTANCE                                                             
          THE FORCE     EQUILIBRIUM RESPONSE WAS LINEAR IN THIS INCREMENT

 AVERAGE MOMENT                     0.917       TIME AVG. MOMENT      0.350    
 LARGEST RESIDUAL MOMENT           -1.519E-10   AT NODE        976   DOF  4
   INSTANCE: UPPER_SKIN-INSTANCE                                                             
 LARGEST INCREMENT OF ROTATION      -1.35       AT NODE        980   DOF  5
   INSTANCE: UPPER_SKIN-INSTANCE                                                             
 LARGEST CORRECTION TO ROTATION    -1.546E-13   AT NODE        712   DOF  4
   INSTANCE: UPPER_SKIN-INSTANCE                                                             
          THE MOMENT    EQUILIBRIUM RESPONSE WAS LINEAR IN THIS INCREMENT

 ITERATION SUMMARY FOR THE INCREMENT:   1 TOTAL ITERATIONS, OF WHICH
   0 ARE SEVERE DISCONTINUITY ITERATIONS AND  1 ARE EQUILIBRIUM ITERATIONS.

 TIME INCREMENT COMPLETED  0.100    ,  FRACTION OF STEP COMPLETED  0.918    
 STEP TIME COMPLETED       0.918    ,  TOTAL TIME COMPLETED        0.918    


  INCREMENT    15 STARTS. ATTEMPT NUMBER  1, TIME INCREMENT  8.219E-02
 
	SYMMETRIC DIRECT SPARSE SOLVER RUNNING ON
 	1 HOST:        1 MPI RANK  x 1 THREAD
 	NUMBER OF EQUATIONS:     19290
 	NUMBER OF RHS:           1
 	NUMBER OF FLOPS:         7.297e+08

     CHECK POINT  START OF SOLVER     

     CHECK POINT  END OF SOLVER       

       ELAPSED USER TIME (SEC)      =   0.0000    
       ELAPSED SYSTEM TIME (SEC)    =   0.0000    
       ELAPSED TOTAL CPU TIME (SEC) =   0.0000    
       ELAPSED WALLCLOCK TIME (SEC) =            0

               CONVERGENCE CHECKS FOR EQUILIBRIUM ITERATION     1


 AVERAGE FORCE                       450.       TIME AVG. FORCE        174.    
 LARGEST RESIDUAL FORCE            -4.978E-09   AT NODE        946   DOF  3
   INSTANCE: UPPER_SKIN-INSTANCE                                                             
 LARGEST INCREMENT OF DISP.        -0.695       AT NODE        982   DOF  3
   INSTANCE: UPPER_SKIN-INSTANCE                                                             
 LARGEST CORRECTION TO DISP.       -9.777E-15   AT NODE        941   DOF  3
   INSTANCE: UPPER_SKIN-INSTANCE                                                             
          THE FORCE     EQUILIBRIUM RESPONSE WAS LINEAR IN THIS INCREMENT

 AVERAGE MOMENT                     0.999       TIME AVG. MOMENT      0.393    
 LARGEST RESIDUAL MOMENT            1.615E-10   AT NODE        996   DOF  4
   INSTANCE: UPPER_SKIN-INSTANCE                                                             
 LARGEST INCREMENT OF ROTATION      -1.11       AT NODE        980   DOF  5
   INSTANCE: UPPER_SKIN-INSTANCE                                                             
 LARGEST CORRECTION TO ROTATION     2.848E-13   AT NODE        695   DOF  4
   INSTANCE: UPPER_SKIN-INSTANCE                                                             
          THE MOMENT    EQUILIBRIUM RESPONSE WAS LINEAR IN THIS INCREMENT

 ITERATION SUMMARY FOR THE INCREMENT:   1 TOTAL ITERATIONS, OF WHICH
   0 ARE SEVERE DISCONTINUITY ITERATIONS AND  1 ARE EQUILIBRIUM ITERATIONS.

 TIME INCREMENT COMPLETED  8.219E-02,  FRACTION OF STEP COMPLETED   1.00    
 STEP TIME COMPLETED        1.00    ,  TOTAL TIME COMPLETED         1.00    


          THE ANALYSIS HAS BEEN COMPLETED



     ANALYSIS SUMMARY:
     TOTAL OF         15  INCREMENTS
                       0  CUTBACKS IN AUTOMATIC INCREMENTATION
                      15  ITERATIONS INCLUDING CONTACT ITERATIONS IF PRESENT
                      15  PASSES THROUGH THE EQUATION SOLVER OF WHICH 
                       1  INVOLVE MATRIX DECOMPOSITION, INCLUDING
                       0  DECOMPOSITION(S) OF THE MASS MATRIX
                       1  REORDERING OF EQUATIONS TO MINIMIZE WAVEFRONT
                       0  ADDITIONAL RESIDUAL EVALUATIONS FOR LINE SEARCHES
                       0  ADDITIONAL OPERATOR EVALUATIONS FOR LINE SEARCHES
                      41  WARNING MESSAGES DURING USER INPUT PROCESSING
                       0  WARNING MESSAGES DURING ANALYSIS
                       0  ANALYSIS WARNINGS ARE NUMERICAL PROBLEM MESSAGES
                       0  ANALYSIS WARNINGS ARE NEGATIVE EIGENVALUE MESSAGES
                       0  ERROR MESSAGES



     JOB TIME SUMMARY
       USER TIME (SEC)      =      2.9    
       SYSTEM TIME (SEC)    =      0.0    
       TOTAL CPU TIME (SEC) =      2.9    
       WALLCLOCK TIME (SEC) =            4
       MEMORY PEAK (GB)     =            0
