*Heading
** Job name: Job-1 Model name: wing_box
** Generated by: Abaqus/CAE 2023
*Preprint, echo=NO, model=NO, history=NO, contact=NO
**
** PARTS
**
*Part, name=FRONT_SPAR
*Node
      1,  -4.71999979,           0.,  0.428339988
      2,  -3.71308041,          1.5,  0.336962044
      3,  -4.71999979,           0., -0.249569997
      4,  -3.71308041,          1.5, -0.196329132
      5,   1.56034684,          8.5,  0.119064003
      6,   1.56034684,          8.5, -0.0693719983
      7,  -4.66700411, 0.0789473653,  0.423530638
      8,  -4.61400843,  0.157894731,  0.418721259
      9,  -4.56101274,  0.236842111,  0.413911909
     10,  -4.50801706,  0.315789461,  0.409102529
     11,  -4.45502138,  0.394736856,   0.40429318
     12,  -4.40202522,  0.473684222,    0.3994838
     13,  -4.34902954,  0.552631557,   0.39467445
     14,  -4.29603386,  0.631578922,  0.389865071
     15,  -4.24303818,  0.710526288,  0.385055721
     16,   -4.1900425,  0.789473712,  0.380246341
     17,  -4.13704634,  0.868421078,  0.375436962
     18,  -4.08405066,  0.947368443,  0.370627612
     19,  -4.03105497,   1.02631581,  0.365818232
     20,  -3.97805929,   1.10526311,  0.361008883
** ... 385 like lines cut
*Element, type=S4R
230,   1,  25, 233,   7
231,  25,  26, 232, 233
232,  26,  27, 231, 232
234,  28,  29, 230, 231
235,  29,  30, 229, 230
236,  30,   3,  31, 229
237,   4,  53, 234,  48
238,  48, 234, 235,  47
239,  47, 235, 236,  46
240,  46, 236, 237,  45
241,  45, 237, 238,  44
242,  44, 238, 239,  43
243,  43, 239, 240,  42
244,  42, 240, 241,  41
245,  41, 241, 242,  40
246,  40, 242, 243,  39
247,  39, 243, 244,  38
248,  38, 244, 245,  37
249,  37, 245, 246,  36
250,  36, 246, 247,  35
** ... 270 like lines cut
*Element, type=S3R
233,  27,  28, 231
345,  2, 49, 54
347,  50,  51, 319
348,  51,  52, 319
350,  53,   4, 141
*Elset, elset=FRONT_SPAR, generate
 230,  524,    1
** Section: Section-3-FRONT_SPAR
*Shell Section, elset=FRONT_SPAR, material=TEST_MATERIAL-2
0.01, 5
*End Part
**  
*Part, name=LOWER_SKIN
*Node
      1,  -4.71999979,           0., -0.249569997
      2,  -3.71308041,          1.5, -0.196329132
      3,  -1.76999998,           0., -0.126259997
      4,  -1.39240515,          1.5, -0.0993249044
      5,  -1.76999998,           0., -0.106260002
      6,  -1.39240515,          1.5, -0.0793249011
      7,  -4.71999979,           0., -0.229570001
      8,  -3.71308041,          1.5, -0.176329121
      9,   1.56034684,          8.5, -0.0693719983
     10,   2.38034678,          8.5, -0.0350960009
     11,   2.38034678,          8.5, -0.0150960004
     12,   1.56034684,          8.5, -0.0493719988
     13,  -4.66700411, 0.0789473653, -0.246767849
     14,  -4.61400843,  0.157894731,   -0.2439657
     15,  -4.56101274,  0.236842111, -0.241163552
     16,  -4.50801706,  0.315789461, -0.238361388
     17,  -4.45502138,  0.394736856,  -0.23555924
     18,  -4.40202522,  0.473684222, -0.232757092
     19,  -4.34902954,  0.552631557, -0.229954943
     20,  -4.29603386,  0.631578922, -0.227152795
** ... 1427 like lines cut
*Element, type=S4R
476,   2,  30, 485,  75
477,  30,  29, 484, 485
478,  29,  28, 483, 484
479,  28,  27, 482, 483
480,  27,  26, 481, 482
481,  26,  25, 480, 481
483,  24,  23, 479, 480
484,  23,  22, 478, 479
485,  22,  21, 477, 478
486,  21,  20, 476, 477
487,  20,  19, 475, 476
488,  19,  18, 474, 475
490,  17,  16, 473, 474
491,  16,  15, 472, 473
492,  15,  14, 471, 472
493,  14,  13,  31, 471
496,  32,  33, 507, 471
497,  33,  34, 506, 507
498,  34,  35, 505, 506
500,  36,  37, 504, 505
** ... 1287 like lines cut
*Element, type=S3R
482,  25,  24, 480
489,  18,  17, 474
494,  13,   1,  31
495,  31,  32, 471
499,  35,  36, 505
504,  40,  41, 501
509,  45,  46, 497
515,  51,  52, 492
520,  56,  57, 488
905,  97,  96, 823
906,  96,  95, 823
908,  94,  93, 822
909,  93,  92, 822
911,  91,  90, 821
913,  89,  88, 820
914,  88,  87, 820
916,  86,  85, 819
917,  85,  84, 819
919,  83,  82, 818
921,  81,  80, 817
** ... 12 like lines cut
*Elset, elset=LOWER_SKIN, generate
  476,  1814,     1
** Section: Section-2-LOWER_SKIN
*Shell Section, elset=LOWER_SKIN, material=TEST_MATERIAL-2
0.003, 5
*End Part
**  
*Part, name=REAR_SPAR
*Node
      1,  -1.76999998,           0.,  0.305620015
      2,  -1.39240515,          1.5,  0.240421966
      3,  -1.76999998,           0., -0.126259997
      4,  -1.39240515,          1.5, -0.0993249044
      5,   2.38034678,          8.5, 0.0849519968
      6,   2.38034678,          8.5, -0.0350960009
      7,  -1.74640036,      0.09375,  0.301545113
      8,  -1.72280061,       0.1875,  0.297470242
      9,  -1.69920099,      0.28125,   0.29339537
     10,  -1.67560124,        0.375,  0.289320499
     11,  -1.65200162,      0.46875,  0.285245597
     12,  -1.62840199,       0.5625,  0.281170726
     13,  -1.60480225,      0.65625,  0.277095854
     14,  -1.58120263,         0.75,  0.273020983
     15,  -1.55760288,      0.84375,  0.268946111
     16,  -1.53400326,       0.9375,   0.26487121
     17,  -1.51040351,      1.03125,  0.260796338
     18,  -1.48680389,        1.125,  0.256721467
     19,  -1.46320415,      1.21875,  0.252646595
     20,  -1.43960452,       1.3125,  0.248571709
** ... 306 like lines cut
*Element, type=S4R
204,   1,  22, 205,   7
205,  22,  23, 204, 205
207,  24,  25, 203, 204
208,  25,   3,  26, 203
209,   4,  43, 206,  40
210,  40, 206, 207,  39
211,  39, 207, 208,  38
212,  38, 208, 209,  37
213,  37, 209, 210,  36
214,  36, 210, 211,  35
215,  35, 211, 212,  34
216,  34, 212, 213,  33
217,  33, 213, 214,  32
218,  32, 214, 215,  31
219,  31, 215, 216,  30
220,  30, 216, 217,  29
221,  29, 217, 218,  28
222,  28, 218, 219,  27
223,  27, 219, 203,  26
224,  43,  42, 220, 206
** ... 204 like lines cut
*Element, type=S3R
206,  23,  24, 204
269,  2, 41, 44
272,  43,   4, 123
*Elset, elset=REAR_SPAR, generate
 204,  430,    1
** Section: Section-4-REAR_SPAR
*Shell Section, elset=REAR_SPAR, material=TEST_MATERIAL-2
0.01, 5
*End Part
**  
*Part, name=UPPER_SKIN
*Node
      1,  -4.71999979,           0.,  0.428339988
      2,  -3.71308041,          1.5,  0.336962044
      3,  -1.76999998,           0.,  0.305620015
      4,  -1.39240515,          1.5,  0.240421966
      5,  -1.76999998,           0.,  0.285620004
      6,  -1.39240515,          1.5,  0.220421955
      7,  -4.71999979,           0.,  0.408340007
      8,  -3.71308041,          1.5,  0.316962063
      9,   1.56034684,          8.5,  0.119064003
     10,   2.38034678,          8.5, 0.0849519968
     11,   2.38034678,          8.5,  0.064952001
     12,   1.56034684,          8.5,     0.099064
     13,  -4.66700411, 0.0789473653,  0.423530638
     14,  -4.61400843,  0.157894731,  0.418721259
     15,  -4.56101274,  0.236842111,  0.413911909
     16,  -4.50801706,  0.315789461,  0.409102529
     17,  -4.45502138,  0.394736856,   0.40429318
     18,  -4.40202522,  0.473684222,    0.3994838
     19,  -4.34902954,  0.552631557,   0.39467445
     20,  -4.29603386,  0.631578922,  0.389865071
** ... 1427 like lines cut
*Element, type=S4R
476,   2,  30, 485,  75
477,  30,  29, 484, 485
478,  29,  28, 483, 484
479,  28,  27, 482, 483
480,  27,  26, 481, 482
481,  26,  25, 480, 481
483,  24,  23, 479, 480
484,  23,  22, 478, 479
485,  22,  21, 477, 478
486,  21,  20, 476, 477
487,  20,  19, 475, 476
488,  19,  18, 474, 475
490,  17,  16, 473, 474
491,  16,  15, 472, 473
492,  15,  14, 471, 472
493,  14,  13,  31, 471
496,  32,  33, 507, 471
497,  33,  34, 506, 507
498,  34,  35, 505, 506
500,  36,  37, 504, 505
** ... 1287 like lines cut
*Element, type=S3R
482,  25,  24, 480
489,  18,  17, 474
494,  13,   1,  31
495,  31,  32, 471
499,  35,  36, 505
504,  40,  41, 501
509,  45,  46, 497
515,  51,  52, 492
520,  56,  57, 488
916, 206, 205, 883
928, 194, 193, 872
941, 181, 180, 860
953, 169, 168, 849
965, 157, 156, 838
978, 144, 143, 826
990, 132, 131,  75
991, 131,   2,  75
992,  75,  76, 816
993,  76,  77, 816
994,  77,  78, 816
** ... 12 like lines cut
*Elset, elset=UPPER_SKIN, generate
  476,  1814,     1
** Section: Section-1-UPPER_SKIN
*Shell Section, elset=UPPER_SKIN, material=TEST_MATERIAL-2
0.003, 5
*End Part
**  
**
** ASSEMBLY
**
*Assembly, name=Assembly
**  
*Instance, name=UPPER_SKIN-INSTANCE, part=UPPER_SKIN
*End Instance
**  
*Instance, name=LOWER_SKIN-INSTANCE, part=LOWER_SKIN
*End Instance
**  
*Instance, name=FRONT_SPAR-INSTANCE, part=FRONT_SPAR
*End Instance
**  
*Instance, name=REAR_SPAR-INSTANCE, part=REAR_SPAR
*End Instance
**  
*Elset, elset=NONE-ELSET-E2, instance=REAR_SPAR-INSTANCE, generate
 254,  268,    1
*Elset, elset=NONE-ELSET-E2-1, instance=REAR_SPAR-INSTANCE
 208,
*Elset, elset=NONE-ELSET-E2-2, instance=REAR_SPAR-INSTANCE, generate
 352,  430,    1
*Elset, elset=NONE-ELSET-E2-3, instance=REAR_SPAR-INSTANCE
 272,
*Elset, elset=NONE-ELSET-E2-4, instance=FRONT_SPAR-INSTANCE, generate
 327,  344,    1
*Elset, elset=NONE-ELSET-E2-5, instance=FRONT_SPAR-INSTANCE
 236,
*Elset, elset=NONE-ELSET-E2-6, instance=FRONT_SPAR-INSTANCE, generate
 438,  524,    1
*Elset, elset=NONE-ELSET-E2-7, instance=FRONT_SPAR-INSTANCE
 350,
*Elset, elset=NONE-ELSET-E3, instance=REAR_SPAR-INSTANCE
 269,
*Elset, elset=NONE-ELSET-E3-1, instance=FRONT_SPAR-INSTANCE
 345,
*Elset, elset=NONE-ELSET-E4, instance=REAR_SPAR-INSTANCE
 204,
*Elset, elset=NONE-ELSET-E4-1, instance=REAR_SPAR-INSTANCE, generate
 209,  223,    1
*Elset, elset=NONE-ELSET-E4-2, instance=REAR_SPAR-INSTANCE, generate
 273,  351,    1
*Elset, elset=NONE-ELSET-E4-3, instance=FRONT_SPAR-INSTANCE
 230,
*Elset, elset=NONE-ELSET-E4-4, instance=FRONT_SPAR-INSTANCE, generate
 237,  254,    1
*Elset, elset=NONE-ELSET-E4-5, instance=FRONT_SPAR-INSTANCE, generate
 351,  437,    1
*Elset, elset=NONE-SET, instance=UPPER_SKIN-INSTANCE, generate
 869,  884,    1
*Elset, elset=NONE-SET-1, instance=UPPER_SKIN-INSTANCE, generate
 885,  903,    1
*Elset, elset=NONE-SET-2, instance=UPPER_SKIN-INSTANCE, generate
 1647,  1726,     1
*Elset, elset=NONE-SET-3, instance=UPPER_SKIN-INSTANCE, generate
 1727,  1814,     1
*Elset, elset=NONE-SET-4, instance=LOWER_SKIN-INSTANCE, generate
 869,  884,    1
*Elset, elset=NONE-SET-5, instance=LOWER_SKIN-INSTANCE, generate
 885,  903,    1
*Elset, elset=NONE-SET-6, instance=LOWER_SKIN-INSTANCE, generate
 1647,  1726,     1
*Elset, elset=NONE-SET-7, instance=LOWER_SKIN-INSTANCE, generate
 1727,  1814,     1
*Elset, elset=NONE-SET-8, instance=UPPER_SKIN-INSTANCE
  476,  477,  478,  479,  480,  481,  482,  483,  484,  485,  486,  487,  488,  489,  490,  491
  492,  493,  494,  495,  496,  497,  498,  499,  500,  501,  502,  503,  504,  505,  506,  507
  508,  509,  510,  511,  512,  513,  514,  515,  516,  517,  518,  519,  520,  521,  522,  523
  524,  525,  526,  527,  528,  529,  530,  531,  532,  533,  534,  535,  536,  537,  538,  539
  540,  541,  542,  543,  544,  545,  546,  547,  548,  549,  550,  551,  552,  553,  554,  555
  556,  557,  558,  559,  560,  561,  562,  563,  564,  565,  566,  567,  568,  569,  570,  571
  572,  573,  574,  575,  576,  577,  578,  579,  580,  581,  582,  583,  584,  585,  586,  587
  588,  589,  590,  591,  592,  593,  594,  595,  596,  597,  598,  599,  600,  601,  602,  603
  604,  605,  606,  607,  608,  609,  610,  611,  612,  613,  614,  615,  616,  617,  618,  619
  620,  621,  622,  623,  624,  625,  626,  627,  628,  629,  630,  631,  632,  633,  634,  635
  636,  637,  638,  639,  640,  641,  642,  643,  644,  645,  646,  647,  648,  649,  650,  651
  652,  653,  654,  655,  656,  657,  658,  659,  660,  661,  662,  663,  664,  665,  666,  667
  668,  669,  670,  671,  672,  673,  674,  675,  676,  677,  678,  679,  680,  681,  682,  683
  684,  685,  686,  687,  688,  689,  690,  691,  692,  693,  694,  695,  696,  697,  698,  699
  700,  701,  702,  703,  704,  705,  706,  707,  708,  709,  710,  711,  712,  713,  714,  715
  716,  717,  718,  719,  720,  721,  722,  723,  724,  725,  726,  727,  728,  729,  730,  731
  732,  733,  734,  735,  736,  737,  738,  739,  740,  741,  742,  743,  744,  745,  746,  747
  748,  749,  750,  751,  752,  753,  754,  755,  756,  757,  758,  759,  760,  761,  762,  763
  764,  765,  766,  767,  768,  769,  770,  771,  772,  773,  774,  775,  776,  777,  778,  779
  780,  781,  782,  783,  784,  785,  786,  787,  788,  789,  790,  791,  792,  793,  794,  795
** ... 51 like lines cut
*Nset, nset=SET, instance=UPPER_SKIN-INSTANCE
  1,  3, 31, 32, 33, 34, 35, 36, 37, 38, 39, 40, 41, 42, 43, 44
 45, 46, 47, 48, 49, 50, 51, 52, 53, 54, 55, 56, 57, 58, 59
*Nset, nset=SET-1, instance=LOWER_SKIN-INSTANCE
  1,  3, 31, 32, 33, 34, 35, 36, 37, 38, 39, 40, 41, 42, 43, 44
 45, 46, 47, 48, 49, 50, 51, 52, 53, 54, 55, 56, 57, 58, 59
*Nset, nset=SET-2, instance=FRONT_SPAR-INSTANCE
  1,  3, 25, 26, 27, 28, 29, 30
*Nset, nset=SET-3, instance=REAR_SPAR-INSTANCE
  1,  3, 22, 23, 24, 25
*Elset, elset=_SURFACE_SPOS, internal, instance=UPPER_SKIN-INSTANCE, generate
 869,  884,    1
*Surface, type=ELEMENT, name=SURFACE
_SURFACE_SPOS, SPOS
*Elset, elset=_SURFACE-1_SPOS, internal, instance=UPPER_SKIN-INSTANCE, generate
 885,  903,    1
*Surface, type=ELEMENT, name=SURFACE-1
_SURFACE-1_SPOS, SPOS
*Elset, elset=_SURFACE-2_SPOS, internal, instance=UPPER_SKIN-INSTANCE, generate
 1647,  1726,     1
*Surface, type=ELEMENT, name=SURFACE-2
_SURFACE-2_SPOS, SPOS
*Elset, elset=_SURFACE-3_SPOS, internal, instance=UPPER_SKIN-INSTANCE, generate
 1727,  1814,     1
*Surface, type=ELEMENT, name=SURFACE-3
_SURFACE-3_SPOS, SPOS
*Elset, elset=_SURFACE-4_SPOS, internal, instance=LOWER_SKIN-INSTANCE, generate
 869,  884,    1
*Surface, type=ELEMENT, name=SURFACE-4
_SURFACE-4_SPOS, SPOS
*Elset, elset=_SURFACE-5_SPOS, internal, instance=LOWER_SKIN-INSTANCE, generate
 885,  903,    1
*Surface, type=ELEMENT, name=SURFACE-5
_SURFACE-5_SPOS, SPOS
*Elset, elset=_SURFACE-6_SPOS, internal, instance=LOWER_SKIN-INSTANCE, generate
 1647,  1726,     1
*Surface, type=ELEMENT, name=SURFACE-6
_SURFACE-6_SPOS, SPOS
*Elset, elset=_SURFACE-7_SPOS, internal, instance=LOWER_SKIN-INSTANCE, generate
 1727,  1814,     1
*Surface, type=ELEMENT, name=SURFACE-7
_SURFACE-7_SPOS, SPOS
*Elset, elset=_SURFACE-8_E4, internal, instance=REAR_SPAR-INSTANCE
 204,
*Elset, elset=_SURFACE-8_E2, internal, instance=REAR_SPAR-INSTANCE, generate
 254,  268,    1
*Surface, type=ELEMENT, name=SURFACE-8
_SURFACE-8_E4, E4
_SURFACE-8_E2, E2
*Elset, elset=_SURFACE-9_E2, internal, instance=REAR_SPAR-INSTANCE
 208,
*Elset, elset=_SURFACE-9_E4, internal, instance=REAR_SPAR-INSTANCE, generate
 209,  223,    1
*Surface, type=ELEMENT, name=SURFACE-9
_SURFACE-9_E2, E2
_SURFACE-9_E4, E4
*Elset, elset=_SURFACE-10_E3, internal, instance=REAR_SPAR-INSTANCE
 269,
*Elset, elset=_SURFACE-10_E2, internal, instance=REAR_SPAR-INSTANCE, generate
 352,  430,    1
*Surface, type=ELEMENT, name=SURFACE-10
_SURFACE-10_E3, E3
_SURFACE-10_E2, E2
*Elset, elset=_SURFACE-11_E2, internal, instance=REAR_SPAR-INSTANCE
 272,
*Elset, elset=_SURFACE-11_E4, internal, instance=REAR_SPAR-INSTANCE, generate
 273,  351,    1
*Surface, type=ELEMENT, name=SURFACE-11
_SURFACE-11_E2, E2
_SURFACE-11_E4, E4
*Elset, elset=_SURFACE-12_E4, internal, instance=FRONT_SPAR-INSTANCE
 230,
*Elset, elset=_SURFACE-12_E2, internal, instance=FRONT_SPAR-INSTANCE, generate
 327,  344,    1
*Surface, type=ELEMENT, name=SURFACE-12
_SURFACE-12_E4, E4
_SURFACE-12_E2, E2
*Elset, elset=_SURFACE-13_E2, internal, instance=FRONT_SPAR-INSTANCE
 236,
*Elset, elset=_SURFACE-13_E4, internal, instance=FRONT_SPAR-INSTANCE, generate
 237,  254,    1
*Surface, type=ELEMENT, name=SURFACE-13
_SURFACE-13_E2, E2
_SURFACE-13_E4, E4
*Elset, elset=_SURFACE-14_E3, internal, instance=FRONT_SPAR-INSTANCE
 345,
*Elset, elset=_SURFACE-14_E2, internal, instance=FRONT_SPAR-INSTANCE, generate
 438,  524,    1
*Surface, type=ELEMENT, name=SURFACE-14
_SURFACE-14_E3, E3
_SURFACE-14_E2, E2
*Elset, elset=_SURFACE-15_E2, internal, instance=FRONT_SPAR-INSTANCE
 350,
*Elset, elset=_SURFACE-15_E4, internal, instance=FRONT_SPAR-INSTANCE, generate
 351,  437,    1
*Surface, type=ELEMENT, name=SURFACE-15
_SURFACE-15_E2, E2
_SURFACE-15_E4, E4
*Elset, elset=_SURFACE-16_SPOS, internal, instance=UPPER_SKIN-INSTANCE
  476,  477,  478,  479,  480,  481,  482,  483,  484,  485,  486,  487,  488,  489,  490,  491
  492,  493,  494,  495,  496,  497,  498,  499,  500,  501,  502,  503,  504,  505,  506,  507
  508,  509,  510,  511,  512,  513,  514,  515,  516,  517,  518,  519,  520,  521,  522,  523
  524,  525,  526,  527,  528,  529,  530,  531,  532,  533,  534,  535,  536,  537,  538,  539
  540,  541,  542,  543,  544,  545,  546,  547,  548,  549,  550,  551,  552,  553,  554,  555
  556,  557,  558,  559,  560,  561,  562,  563,  564,  565,  566,  567,  568,  569,  570,  571
  572,  573,  574,  575,  576,  577,  578,  579,  580,  581,  582,  583,  584,  585,  586,  587
  588,  589,  590,  591,  592,  593,  594,  595,  596,  597,  598,  599,  600,  601,  602,  603
  604,  605,  606,  607,  608,  609,  610,  611,  612,  613,  614,  615,  616,  617,  618,  619
  620,  621,  622,  623,  624,  625,  626,  627,  628,  629,  630,  631,  632,  633,  634,  635
  636,  637,  638,  639,  640,  641,  642,  643,  644,  645,  646,  647,  648,  649,  650,  651
  652,  653,  654,  655,  656,  657,  658,  659,  660,  661,  662,  663,  664,  665,  666,  667
  668,  669,  670,  671,  672,  673,  674,  675,  676,  677,  678,  679,  680,  681,  682,  683
  684,  685,  686,  687,  688,  689,  690,  691,  692,  693,  694,  695,  696,  697,  698,  699
  700,  701,  702,  703,  704,  705,  706,  707,  708,  709,  710,  711,  712,  713,  714,  715
  716,  717,  718,  719,  720,  721,  722,  723,  724,  725,  726,  727,  728,  729,  730,  731
  732,  733,  734,  735,  736,  737,  738,  739,  740,  741,  742,  743,  744,  745,  746,  747
  748,  749,  750,  751,  752,  753,  754,  755,  756,  757,  758,  759,  760,  761,  762,  763
  764,  765,  766,  767,  768,  769,  770,  771,  772,  773,  774,  775,  776,  777,  778,  779
  780,  781,  782,  783,  784,  785,  786,  787,  788,  789,  790,  791,  792,  793,  794,  795
** ... 51 like lines cut
*Surface, type=ELEMENT, name=SURFACE-16
_SURFACE-16_SPOS, SPOS
** Constraint: TIE-1
*Tie, name=TIE-1, adjust=yes, type=SURFACE TO SURFACE
SURFACE-8, SURFACE
** Constraint: TIE-1-1
*Tie, name=TIE-1-1, adjust=yes, type=SURFACE TO SURFACE
SURFACE-10, SURFACE-2
** Constraint: TIE-2-1
*Tie, name=TIE-2-1, adjust=yes, type=SURFACE TO SURFACE
SURFACE-12, SURFACE-1
** Constraint: TIE-3-1
*Tie, name=TIE-3-1, adjust=yes, type=SURFACE TO SURFACE
SURFACE-14, SURFACE-3
** Constraint: TIE-4-1
*Tie, name=TIE-4-1, adjust=yes, type=SURFACE TO SURFACE
SURFACE-9, SURFACE-4
** Constraint: TIE-5-1
*Tie, name=TIE-5-1, adjust=yes, type=SURFACE TO SURFACE
SURFACE-11, SURFACE-6
** Constraint: TIE-6-1
*Tie, name=TIE-6-1, adjust=yes, type=SURFACE TO SURFACE
SURFACE-13, SURFACE-5
** Constraint: TIE-7-1
*Tie, name=TIE-7-1, adjust=yes, type=SURFACE TO SURFACE
SURFACE-15, SURFACE-7
*End Assembly
** 
** MATERIALS
** 
*Material, name=TEST_MATERIAL-2
*Density
900.,
*Elastic
 1e+09, 0.3
** 
** BOUNDARY CONDITIONS
** 
** Name: Disp-BC-1 Type: Displacement/Rotation
*Boundary
SET, 1, 1
** Name: Disp-BC-2 Type: Displacement/Rotation
*Boundary
SET, 2, 2
** Name: Disp-BC-3 Type: Displacement/Rotation
*Boundary
SET, 3, 3
** Name: Disp-BC-4 Type: Displacement/Rotation
*Boundary
SET, 4, 4
** Name: Disp-BC-5 Type: Displacement/Rotation
*Boundary
SET, 5, 5
** Name: Disp-BC-6 Type: Displacement/Rotation
*Boundary
SET, 6, 6
** Name: Disp-BC-7 Type: Displacement/Rotation
*Boundary
SET-1, 1, 1
** Name: Disp-BC-8 Type: Displacement/Rotation
*Boundary
SET-1, 2, 2
** Name: Disp-BC-9 Type: Displacement/Rotation
*Boundary
SET-1, 3, 3
** Name: Disp-BC-10 Type: Displacement/Rotation
*Boundary
SET-1, 4, 4
** Name: Disp-BC-11 Type: Displacement/Rotation
*Boundary
SET-1, 5, 5
** Name: Disp-BC-12 Type: Displacement/Rotation
*Boundary
SET-1, 6, 6
** Name: Disp-BC-13 Type: Displacement/Rotation
*Boundary
SET-2, 1, 1
** Name: Disp-BC-14 Type: Displacement/Rotation
*Boundary
SET-2, 2, 2
** Name: Disp-BC-15 Type: Displacement/Rotation
*Boundary
SET-2, 3, 3
** Name: Disp-BC-16 Type: Displacement/Rotation
*Boundary
SET-2, 4, 4
** Name: Disp-BC-17 Type: Displacement/Rotation
*Boundary
SET-2, 5, 5
** Name: Disp-BC-18 Type: Displacement/Rotation
*Boundary
SET-2, 6, 6
** Name: Disp-BC-19 Type: Displacement/Rotation
*Boundary
SET-3, 1, 1
** Name: Disp-BC-20 Type: Displacement/Rotation
*Boundary
SET-3, 2, 2
** Name: Disp-BC-21 Type: Displacement/Rotation
*Boundary
SET-3, 3, 3
** Name: Disp-BC-22 Type: Displacement/Rotation
*Boundary
SET-3, 4, 4
** Name: Disp-BC-23 Type: Displacement/Rotation
*Boundary
SET-3, 5, 5
** Name: Disp-BC-24 Type: Displacement/Rotation
*Boundary
SET-3, 6, 6
** ----------------------------------------------------------------
** 
** STEP: analysis1
** 
*Step, name=analysis1, nlgeom=NO
*Static
0.01, 1., 1e-15, 0.1
** 
** LOADS
** 
** Name: SURFFORCE-1   Type: Pressure
*Dsload
SURFACE-16, P, 1000.
** 
** OUTPUT REQUESTS
** 
*Restart, write, frequency=0
** 
** FIELD OUTPUT: FIELD-OUTPUT
** 
*Output, field, variable=PRESELECT
** 
** HISTORY OUTPUT: HISTORY-OUTPUT
** 
*Output, history, variable=PRESELECT
*End Step
