1

   Abaqus 2023                                  Date 15-Jun-2024   Time 18:29:24
   For use by DELFT UNIVERSITY OF TECHNOLOGY under license from Dassault Systemes or its subsidiary.

                                                                                 
                                                                                 
 STEP    1     INCREMENT     1     STEP TIME    0.00    


                        S T E P       1     S T A T I C   A N A L Y S I S


                                                                                          

     AUTOMATIC TIME CONTROL WITH -
          A SUGGESTED INITIAL TIME INCREMENT OF                1.000E-02
          AND A TOTAL TIME PERIOD OF                            1.00    
          THE MINIMUM TIME INCREMENT ALLOWED IS                1.000E-15
          THE MAXIMUM TIME INCREMENT ALLOWED IS                0.100    

     LINEAR EQUATION SOLVER TYPE         DIRECT SPARSE

 CONVERGENCE TOLERANCE PARAMETERS FOR FORCE    
     CRITERION FOR RESIDUAL FORCE     FOR A NONLINEAR PROBLEM          5.000E-03
     CRITERION FOR DISP.    CORRECTION IN A NONLINEAR PROBLEM          1.000E-02
     INITIAL VALUE OF TIME AVERAGE FORCE                               1.000E-02
     AVERAGE FORCE     IS TIME AVERAGE FORCE    
     ALTERNATE CRIT. FOR RESIDUAL FORCE     FOR A NONLINEAR PROBLEM    2.000E-02
     CRITERION FOR ZERO FORCE     RELATIVE TO TIME AVRG. FORCE         1.000E-05
     CRITERION FOR RESIDUAL FORCE     WHEN THERE IS ZERO FLUX          1.000E-05
     CRITERION FOR DISP.    CORRECTION WHEN THERE IS ZERO FLUX         1.000E-03
     CRITERION FOR RESIDUAL FORCE     FOR A LINEAR INCREMENT           1.000E-08
     FIELD CONVERSION RATIO                                             1.00    
     CRITERION FOR ZERO FORCE     REL. TO TIME AVRG. MAX. FORCE        1.000E-05
     CRITERION FOR ZERO DISP.    RELATIVE TO CHARACTERISTIC LENGTH     1.000E-08

 CONVERGENCE TOLERANCE PARAMETERS FOR MOMENT   
     CRITERION FOR RESIDUAL MOMENT    FOR A NONLINEAR PROBLEM          5.000E-03
     CRITERION FOR ROTATION CORRECTION IN A NONLINEAR PROBLEM          1.000E-02
     INITIAL VALUE OF TIME AVERAGE MOMENT                              1.000E-02
     AVERAGE MOMENT    IS TIME AVERAGE MOMENT   
     ALTERNATE CRIT. FOR RESIDUAL MOMENT    FOR A NONLINEAR PROBLEM    2.000E-02
     CRITERION FOR ZERO MOMENT    RELATIVE TO TIME AVRG. MOMENT        1.000E-05
     CRITERION FOR RESIDUAL MOMENT    WHEN THERE IS ZERO FLUX          1.000E-05
     CRITERION FOR ROTATION CORRECTION WHEN THERE IS ZERO FLUX         1.000E-03
     CRITERION FOR RESIDUAL MOMENT    FOR A LINEAR INCREMENT           1.000E-08
     FIELD CONVERSION RATIO                                             1.00    
     CRITERION FOR ZERO MOMENT    REL. TO TIME AVRG. MAX. MOMENT       1.000E-05

     VOLUMETRIC STRAIN COMPATIBILITY TOLERANCE FOR HYBRID SOLIDS       1.000E-05
     AXIAL STRAIN COMPATIBILITY TOLERANCE FOR HYBRID BEAMS             1.000E-05
     TRANS. SHEAR STRAIN COMPATIBILITY TOLERANCE FOR HYBRID BEAMS      1.000E-05
     SOFT CONTACT CONSTRAINT COMPATIBILITY TOLERANCE FOR P>P0          5.000E-03
     SOFT CONTACT CONSTRAINT COMPATIBILITY TOLERANCE FOR P=0.0         0.100    
     CONTACT FORCE ERROR TOLERANCE FOR CONVERT SDI=YES                 1.00    
     DISPLACEMENT COMPATIBILITY TOLERANCE FOR DCOUP ELEMENTS           1.000E-05
     ROTATION COMPATIBILITY TOLERANCE FOR DCOUP ELEMENTS               1.000E-05

 EQUILIBRIUM WILL BE CHECKED FOR SEVERE DISCONTINUITY ITERATIONS

 TIME INCREMENTATION CONTROL PARAMETERS:
     FIRST EQUILIBRIUM ITERATION FOR CONSECUTIVE DIVERGENCE CHECK              4
     EQUILIBRIUM ITERATION AT WHICH LOG. CONVERGENCE RATE CHECK BEGINS         8
     EQUILIBRIUM ITERATION AFTER WHICH ALTERNATE RESIDUAL IS USED              9
     MAXIMUM EQUILIBRIUM ITERATIONS ALLOWED                                   16
     EQUILIBRIUM ITERATION COUNT FOR CUT-BACK IN NEXT INCREMENT               10
     MAXIMUM EQUILIB. ITERS IN TWO INCREMENTS FOR TIME INCREMENT INCREASE      4
     MAXIMUM ITERATIONS FOR SEVERE DISCONTINUITIES                            50
     MAXIMUM ATTEMPTS ALLOWED IN AN INCREMENT                                  5
     MAXIMUM DISCON. ITERS IN TWO INCREMENTS FOR TIME INCREMENT INCREASE      50
     MAXIMUM CONTACT AUGMENTATIONS FOR *SURFACE BEHAVIOR,AUGMENTED LAGRANGE   50
     CUT-BACK FACTOR AFTER DIVERGENCE                                 0.2500    
     CUT-BACK FACTOR FOR TOO SLOW CONVERGENCE                         0.5000    
     CUT-BACK FACTOR AFTER TOO MANY EQUILIBRIUM ITERATIONS            0.7500    
     CUT-BACK FACTOR AFTER TOO MANY SEVERE DISCONTINUITY ITERATIONS   0.2500    
     CUT-BACK FACTOR AFTER PROBLEMS IN ELEMENT ASSEMBLY               0.2500    
     INCREASE FACTOR AFTER TWO INCREMENTS THAT CONVERGE QUICKLY        1.500    
     MAX. TIME INCREMENT INCREASE FACTOR ALLOWED                       1.500    
     MAX. TIME INCREMENT INCREASE FACTOR ALLOWED (DYNAMICS)            1.250    
     MAX. TIME INCREMENT INCREASE FACTOR ALLOWED (DIFFUSION)           2.000    
     MINIMUM TIME INCREMENT RATIO FOR EXTRAPOLATION TO OCCUR          0.1000    
     MAX. RATIO OF TIME INCREMENT TO STABILITY LIMIT                   1.000    
     FRACTION OF STABILITY LIMIT FOR NEW TIME INCREMENT               0.9500    
     TIME INCREMENT INCREASE FACTOR BEFORE A TIME POINT                1.000    
     GLOBAL STABILIZATION CONTROL IS NOT USED

          PRINT OF INCREMENT NUMBER, TIME, ETC., EVERY    1  INCREMENTS

     THE MAXIMUM NUMBER OF INCREMENTS IN THIS STEP IS                     100

     LINEAR EXTRAPOLATION WILL BE USED

     CHARACTERISTIC ELEMENT LENGTH     0.173    

     DETAILS REGARDING ACTUAL SOLUTION WAVEFRONT REQUESTED

     DETAILED OUTPUT OF DIAGNOSTICS TO DATABASE REQUESTED

     PRINT OF INCREMENT NUMBER, TIME, ETC., TO THE MESSAGE FILE EVERY     1  INCREMENTS

     COLLECTING MODEL CONSTRAINT INFORMATION FOR OVERCONSTRAINT CHECKS

     COLLECTING STEP CONSTRAINT INFORMATION FOR OVERCONSTRAINT CHECKS


  INCREMENT     1 STARTS. ATTEMPT NUMBER  1, TIME INCREMENT  1.000E-02

 ***WARNING: THERE ARE 17 UNCONNECTED REGIONS IN THE MODEL.

 ***NOTE: SFM TYPE SURFACE ELEMENTS USED TO DEFINE CONTACT SURFACES NOT PART OF 
          A RIGID BODY MAY INCREASE THE NUMBER OR UNCONNECTED REGIONS REPORTED.
 
	SYMMETRIC DIRECT SPARSE SOLVER RUNNING ON
 	1 HOST:        1 MPI RANK  x 1 THREAD
 	NUMBER OF EQUATIONS:     23088
 	NUMBER OF RHS:           1
 	NUMBER OF FLOPS:         1.594e+09

     CHECK POINT  START OF SOLVER     

     CHECK POINT  END OF SOLVER       

       ELAPSED USER TIME (SEC)      =  0.30000    
       ELAPSED SYSTEM TIME (SEC)    =   0.0000    
       ELAPSED TOTAL CPU TIME (SEC) =  0.30000    
       ELAPSED WALLCLOCK TIME (SEC) =            0
 

 ***WARNING: SOLVER PROBLEM. NUMERICAL SINGULARITY WHEN PROCESSING NODE 
             UPPER_STRINGERS_CENTRE_SECTION-INSTANCE.192 D.O.F. 1 RATIO = 
             179.665E+12  .
 

 ***WARNING: SOLVER PROBLEM. NUMERICAL SINGULARITY WHEN PROCESSING NODE 
             UPPER_STRINGERS_CENTRE_SECTION-INSTANCE.192 D.O.F. 2 RATIO = 
             162.976E+12  .
 

 ***WARNING: SOLVER PROBLEM. NUMERICAL SINGULARITY WHEN PROCESSING NODE 
             UPPER_STRINGERS_CENTRE_SECTION-INSTANCE.192 D.O.F. 3 RATIO = 
             70.5410E+12 .
 

 ***WARNING: SOLVER PROBLEM. NUMERICAL SINGULARITY WHEN PROCESSING NODE 
             UPPER_STRINGERS_CENTRE_SECTION-INSTANCE.192 D.O.F. 4 RATIO = 
             410.888E+09  .
 

 ***WARNING: SOLVER PROBLEM. NUMERICAL SINGULARITY WHEN PROCESSING NODE 
             UPPER_STRINGERS_CENTRE_SECTION-INSTANCE.192 D.O.F. 5 RATIO = 
             126.698E+12  .
 

 ***WARNING: SOLVER PROBLEM. NUMERICAL SINGULARITY WHEN PROCESSING NODE 
             UPPER_STRINGERS_CENTRE_SECTION-INSTANCE.192 D.O.F. 6 RATIO = 
             63.0931E+09 .
 

 ***WARNING: SOLVER PROBLEM. NUMERICAL SINGULARITY WHEN PROCESSING NODE 
             UPPER_STRINGERS_CENTRE_SECTION-INSTANCE.156 D.O.F. 1 RATIO = 
             148.991E+12  .
 

 ***WARNING: SOLVER PROBLEM. NUMERICAL SINGULARITY WHEN PROCESSING NODE 
             UPPER_STRINGERS_CENTRE_SECTION-INSTANCE.156 D.O.F. 2 RATIO = 
             184.792E+12  .
 

 ***WARNING: SOLVER PROBLEM. NUMERICAL SINGULARITY WHEN PROCESSING NODE 
             UPPER_STRINGERS_CENTRE_SECTION-INSTANCE.156 D.O.F. 3 RATIO = 
             57.9782E+12 .
 

 ***WARNING: SOLVER PROBLEM. NUMERICAL SINGULARITY WHEN PROCESSING NODE 
             UPPER_STRINGERS_CENTRE_SECTION-INSTANCE.156 D.O.F. 4 RATIO = 
             354.026E+09  .
 

 ***WARNING: SOLVER PROBLEM. NUMERICAL SINGULARITY WHEN PROCESSING NODE 
             UPPER_STRINGERS_CENTRE_SECTION-INSTANCE.156 D.O.F. 5 RATIO = 
             91.0247E+12 .
 

 ***WARNING: SOLVER PROBLEM. NUMERICAL SINGULARITY WHEN PROCESSING NODE 
             UPPER_STRINGERS_CENTRE_SECTION-INSTANCE.156 D.O.F. 6 RATIO = 
             54.8327E+09 .
 

 ***WARNING: SOLVER PROBLEM. NUMERICAL SINGULARITY WHEN PROCESSING NODE 
             UPPER_STRINGERS_CENTRE_SECTION-INSTANCE.120 D.O.F. 1 RATIO = 
             156.631E+12  .
 

 ***WARNING: SOLVER PROBLEM. NUMERICAL SINGULARITY WHEN PROCESSING NODE 
             UPPER_STRINGERS_CENTRE_SECTION-INSTANCE.120 D.O.F. 2 RATIO = 
             190.087E+12  .
 

 ***WARNING: SOLVER PROBLEM. NUMERICAL SINGULARITY WHEN PROCESSING NODE 
             UPPER_STRINGERS_CENTRE_SECTION-INSTANCE.120 D.O.F. 3 RATIO = 
             57.3324E+12 .
 

 ***WARNING: SOLVER PROBLEM. NUMERICAL SINGULARITY WHEN PROCESSING NODE 
             UPPER_STRINGERS_CENTRE_SECTION-INSTANCE.120 D.O.F. 4 RATIO = 
             362.849E+09  .
 

 ***WARNING: SOLVER PROBLEM. NUMERICAL SINGULARITY WHEN PROCESSING NODE 
             UPPER_STRINGERS_CENTRE_SECTION-INSTANCE.120 D.O.F. 5 RATIO = 
             104.497E+12  .
 

 ***WARNING: SOLVER PROBLEM. NUMERICAL SINGULARITY WHEN PROCESSING NODE 
             UPPER_STRINGERS_CENTRE_SECTION-INSTANCE.120 D.O.F. 6 RATIO = 
             54.0118E+09 .
 

 ***WARNING: SOLVER PROBLEM. NUMERICAL SINGULARITY WHEN PROCESSING NODE 
             UPPER_STRINGERS_CENTRE_SECTION-INSTANCE.84 D.O.F. 1 RATIO = 
             210.642E+12  .
 

 ***WARNING: SOLVER PROBLEM. NUMERICAL SINGULARITY WHEN PROCESSING NODE 
             UPPER_STRINGERS_CENTRE_SECTION-INSTANCE.84 D.O.F. 2 RATIO = 
             195.862E+12  .
 

 ***WARNING: SOLVER PROBLEM. NUMERICAL SINGULARITY WHEN PROCESSING NODE 
             UPPER_STRINGERS_CENTRE_SECTION-INSTANCE.84 D.O.F. 3 RATIO = 
             75.6357E+12 .
 

 ***WARNING: SOLVER PROBLEM. NUMERICAL SINGULARITY WHEN PROCESSING NODE 
             UPPER_STRINGERS_CENTRE_SECTION-INSTANCE.84 D.O.F. 4 RATIO = 
             953.155E+09  .
 

 ***WARNING: SOLVER PROBLEM. NUMERICAL SINGULARITY WHEN PROCESSING NODE 
             UPPER_STRINGERS_CENTRE_SECTION-INSTANCE.84 D.O.F. 5 RATIO = 
             10.0098E+15 .
 

 ***WARNING: SOLVER PROBLEM. NUMERICAL SINGULARITY WHEN PROCESSING NODE 
             UPPER_STRINGERS_CENTRE_SECTION-INSTANCE.84 D.O.F. 6 RATIO = 
             294.629E+09  .
 

 ***WARNING: SOLVER PROBLEM. NUMERICAL SINGULARITY WHEN PROCESSING NODE 
             RIBS_CENTRE_SECTION-INSTANCE.263 D.O.F. 1 RATIO = 69.9991E+15 .
 

 ***WARNING: SOLVER PROBLEM. NUMERICAL SINGULARITY WHEN PROCESSING NODE 
             RIBS_CENTRE_SECTION-INSTANCE.263 D.O.F. 2 RATIO = 13.2789E+15 .
 

 ***WARNING: SOLVER PROBLEM. NUMERICAL SINGULARITY WHEN PROCESSING NODE 
             RIBS_CENTRE_SECTION-INSTANCE.263 D.O.F. 3 RATIO = 318.576E+12  .
 

 ***WARNING: SOLVER PROBLEM. NUMERICAL SINGULARITY WHEN PROCESSING NODE 
             RIBS_CENTRE_SECTION-INSTANCE.263 D.O.F. 4 RATIO = 103.606E+12  .
 

 ***WARNING: SOLVER PROBLEM. NUMERICAL SINGULARITY WHEN PROCESSING NODE 
             RIBS_CENTRE_SECTION-INSTANCE.263 D.O.F. 6 RATIO = 1.10244E+12.
 

 ***WARNING: SOLVER PROBLEM. NUMERICAL SINGULARITY WHEN PROCESSING NODE 
             LOWER_STRINGERS_CENTRE_SECTION-INSTANCE.198 D.O.F. 1 RATIO = 
             222.710E+12  .
 

 ***WARNING: SOLVER PROBLEM. NUMERICAL SINGULARITY WHEN PROCESSING NODE 
             LOWER_STRINGERS_CENTRE_SECTION-INSTANCE.198 D.O.F. 2 RATIO = 
             154.213E+12  .
 

 ***WARNING: SOLVER PROBLEM. NUMERICAL SINGULARITY WHEN PROCESSING NODE 
             LOWER_STRINGERS_CENTRE_SECTION-INSTANCE.198 D.O.F. 3 RATIO = 
             62.3933E+12 .
 

 ***WARNING: SOLVER PROBLEM. NUMERICAL SINGULARITY WHEN PROCESSING NODE 
             LOWER_STRINGERS_CENTRE_SECTION-INSTANCE.198 D.O.F. 4 RATIO = 
             384.918E+09  .
 

 ***WARNING: SOLVER PROBLEM. NUMERICAL SINGULARITY WHEN PROCESSING NODE 
             LOWER_STRINGERS_CENTRE_SECTION-INSTANCE.198 D.O.F. 5 RATIO = 
             139.975E+12  .
 

 ***WARNING: SOLVER PROBLEM. NUMERICAL SINGULARITY WHEN PROCESSING NODE 
             LOWER_STRINGERS_CENTRE_SECTION-INSTANCE.198 D.O.F. 6 RATIO = 
             132.850E+09  .
 

 ***WARNING: SOLVER PROBLEM. NUMERICAL SINGULARITY WHEN PROCESSING NODE 
             LOWER_STRINGERS_CENTRE_SECTION-INSTANCE.162 D.O.F. 1 RATIO = 
             194.365E+12  .
 

 ***WARNING: SOLVER PROBLEM. NUMERICAL SINGULARITY WHEN PROCESSING NODE 
             LOWER_STRINGERS_CENTRE_SECTION-INSTANCE.162 D.O.F. 2 RATIO = 
             159.750E+12  .
 

 ***WARNING: SOLVER PROBLEM. NUMERICAL SINGULARITY WHEN PROCESSING NODE 
             LOWER_STRINGERS_CENTRE_SECTION-INSTANCE.162 D.O.F. 3 RATIO = 
             99.8687E+12 .
 

 ***WARNING: SOLVER PROBLEM. NUMERICAL SINGULARITY WHEN PROCESSING NODE 
             LOWER_STRINGERS_CENTRE_SECTION-INSTANCE.162 D.O.F. 4 RATIO = 
             517.318E+09  .
 

 ***WARNING: SOLVER PROBLEM. NUMERICAL SINGULARITY WHEN PROCESSING NODE 
             LOWER_STRINGERS_CENTRE_SECTION-INSTANCE.162 D.O.F. 5 RATIO = 
             129.056E+12  .
 

 ***WARNING: SOLVER PROBLEM. NUMERICAL SINGULARITY WHEN PROCESSING NODE 
             LOWER_STRINGERS_CENTRE_SECTION-INSTANCE.162 D.O.F. 6 RATIO = 
             78.6716E+09 .
 

 ***WARNING: SOLVER PROBLEM. NUMERICAL SINGULARITY WHEN PROCESSING NODE 
             LOWER_STRINGERS_CENTRE_SECTION-INSTANCE.90 D.O.F. 1 RATIO = 
             181.188E+12  .
 

 ***WARNING: SOLVER PROBLEM. NUMERICAL SINGULARITY WHEN PROCESSING NODE 
             LOWER_STRINGERS_CENTRE_SECTION-INSTANCE.90 D.O.F. 2 RATIO = 
             199.583E+12  .
 

 ***WARNING: SOLVER PROBLEM. NUMERICAL SINGULARITY WHEN PROCESSING NODE 
             LOWER_STRINGERS_CENTRE_SECTION-INSTANCE.90 D.O.F. 3 RATIO = 
             81.8170E+12 .
 

 ***WARNING: SOLVER PROBLEM. NUMERICAL SINGULARITY WHEN PROCESSING NODE 
             LOWER_STRINGERS_CENTRE_SECTION-INSTANCE.90 D.O.F. 4 RATIO = 
             347.980E+09  .
 

 ***WARNING: SOLVER PROBLEM. NUMERICAL SINGULARITY WHEN PROCESSING NODE 
             LOWER_STRINGERS_CENTRE_SECTION-INSTANCE.90 D.O.F. 5 RATIO = 
             362.915E+12  .
 

 ***WARNING: SOLVER PROBLEM. NUMERICAL SINGULARITY WHEN PROCESSING NODE 
             LOWER_STRINGERS_CENTRE_SECTION-INSTANCE.90 D.O.F. 6 RATIO = 
             111.699E+09  .
 

 ***WARNING: SOLVER PROBLEM. NUMERICAL SINGULARITY WHEN PROCESSING NODE 
             UPPER_STRINGERS_CENTRE_SECTION-INSTANCE.48 D.O.F. 1 RATIO = 
             196.149E+12  .
 

 ***WARNING: SOLVER PROBLEM. NUMERICAL SINGULARITY WHEN PROCESSING NODE 
             UPPER_STRINGERS_CENTRE_SECTION-INSTANCE.48 D.O.F. 2 RATIO = 
             172.773E+12  .
 

 ***WARNING: SOLVER PROBLEM. NUMERICAL SINGULARITY WHEN PROCESSING NODE 
             UPPER_STRINGERS_CENTRE_SECTION-INSTANCE.48 D.O.F. 3 RATIO = 
             53.4667E+12 .
 

 ***WARNING: SOLVER PROBLEM. NUMERICAL SINGULARITY WHEN PROCESSING NODE 
             UPPER_STRINGERS_CENTRE_SECTION-INSTANCE.48 D.O.F. 4 RATIO = 
             319.180E+09  .
 

 ***WARNING: SOLVER PROBLEM. NUMERICAL SINGULARITY WHEN PROCESSING NODE 
             UPPER_STRINGERS_CENTRE_SECTION-INSTANCE.48 D.O.F. 5 RATIO = 
             1.04602E+15.
 

 ***WARNING: SOLVER PROBLEM. NUMERICAL SINGULARITY WHEN PROCESSING NODE 
             UPPER_STRINGERS_CENTRE_SECTION-INSTANCE.48 D.O.F. 6 RATIO = 
             125.381E+09  .
 

 ***WARNING: SOLVER PROBLEM. NUMERICAL SINGULARITY WHEN PROCESSING NODE 
             LOWER_STRINGERS_CENTRE_SECTION-INSTANCE.126 D.O.F. 1 RATIO = 
             205.579E+12  .
 

 ***WARNING: SOLVER PROBLEM. NUMERICAL SINGULARITY WHEN PROCESSING NODE 
             LOWER_STRINGERS_CENTRE_SECTION-INSTANCE.126 D.O.F. 2 RATIO = 
             187.097E+12  .
 

 ***WARNING: SOLVER PROBLEM. NUMERICAL SINGULARITY WHEN PROCESSING NODE 
             LOWER_STRINGERS_CENTRE_SECTION-INSTANCE.126 D.O.F. 3 RATIO = 
             93.2856E+12 .
 

 ***WARNING: SOLVER PROBLEM. NUMERICAL SINGULARITY WHEN PROCESSING NODE 
             LOWER_STRINGERS_CENTRE_SECTION-INSTANCE.126 D.O.F. 4 RATIO = 
             486.994E+09  .
 

 ***WARNING: SOLVER PROBLEM. NUMERICAL SINGULARITY WHEN PROCESSING NODE 
             LOWER_STRINGERS_CENTRE_SECTION-INSTANCE.126 D.O.F. 5 RATIO = 
             252.301E+12  .
 

 ***WARNING: SOLVER PROBLEM. NUMERICAL SINGULARITY WHEN PROCESSING NODE 
             LOWER_STRINGERS_CENTRE_SECTION-INSTANCE.126 D.O.F. 6 RATIO = 
             102.527E+09  .
 

 ***WARNING: SOLVER PROBLEM. NUMERICAL SINGULARITY WHEN PROCESSING NODE 
             LOWER_STRINGERS_CENTRE_SECTION-INSTANCE.54 D.O.F. 1 RATIO = 
             232.393E+12  .
 

 ***WARNING: SOLVER PROBLEM. NUMERICAL SINGULARITY WHEN PROCESSING NODE 
             LOWER_STRINGERS_CENTRE_SECTION-INSTANCE.54 D.O.F. 2 RATIO = 
             203.051E+12  .
 

 ***WARNING: SOLVER PROBLEM. NUMERICAL SINGULARITY WHEN PROCESSING NODE 
             LOWER_STRINGERS_CENTRE_SECTION-INSTANCE.54 D.O.F. 3 RATIO = 
             81.7338E+12 .
 

 ***WARNING: SOLVER PROBLEM. NUMERICAL SINGULARITY WHEN PROCESSING NODE 
             LOWER_STRINGERS_CENTRE_SECTION-INSTANCE.54 D.O.F. 4 RATIO = 
             409.289E+09  .
 

 ***WARNING: SOLVER PROBLEM. NUMERICAL SINGULARITY WHEN PROCESSING NODE 
             LOWER_STRINGERS_CENTRE_SECTION-INSTANCE.54 D.O.F. 5 RATIO = 
             187.184E+12  .
 

 ***WARNING: SOLVER PROBLEM. NUMERICAL SINGULARITY WHEN PROCESSING NODE 
             LOWER_STRINGERS_CENTRE_SECTION-INSTANCE.54 D.O.F. 6 RATIO = 
             128.351E+09  .
 

 ***WARNING: SOLVER PROBLEM. NUMERICAL SINGULARITY WHEN PROCESSING NODE 
             RIBS_CENTRE_SECTION-INSTANCE.320 D.O.F. 1 RATIO = 1.41731E+15.
 

 ***WARNING: SOLVER PROBLEM. NUMERICAL SINGULARITY WHEN PROCESSING NODE 
             RIBS_CENTRE_SECTION-INSTANCE.320 D.O.F. 2 RATIO = 988.616E+12  .
 

 ***WARNING: SOLVER PROBLEM. NUMERICAL SINGULARITY WHEN PROCESSING NODE 
             RIBS_CENTRE_SECTION-INSTANCE.320 D.O.F. 3 RATIO = 482.984E+12  .
 

 ***WARNING: SOLVER PROBLEM. NUMERICAL SINGULARITY WHEN PROCESSING NODE 
             RIBS_CENTRE_SECTION-INSTANCE.320 D.O.F. 4 RATIO = 3.98064E+15.
 

 ***WARNING: SOLVER PROBLEM. NUMERICAL SINGULARITY WHEN PROCESSING NODE 
             RIBS_CENTRE_SECTION-INSTANCE.320 D.O.F. 5 RATIO = 58.6485E+09 .
 

 ***WARNING: SOLVER PROBLEM. NUMERICAL SINGULARITY WHEN PROCESSING NODE 
             RIBS_CENTRE_SECTION-INSTANCE.320 D.O.F. 6 RATIO = 800.693E+09  .
 

 ***WARNING: SOLVER PROBLEM. NUMERICAL SINGULARITY WHEN PROCESSING NODE 
             RIBS_CENTRE_SECTION-INSTANCE.208 D.O.F. 1 RATIO = 698.184E+12  .
 

 ***WARNING: SOLVER PROBLEM. NUMERICAL SINGULARITY WHEN PROCESSING NODE 
             RIBS_CENTRE_SECTION-INSTANCE.208 D.O.F. 2 RATIO = 1.49925E+15.
 

 ***WARNING: SOLVER PROBLEM. NUMERICAL SINGULARITY WHEN PROCESSING NODE 
             RIBS_CENTRE_SECTION-INSTANCE.208 D.O.F. 3 RATIO = 2.68743E+15.
 

 ***WARNING: SOLVER PROBLEM. NUMERICAL SINGULARITY WHEN PROCESSING NODE 
             RIBS_CENTRE_SECTION-INSTANCE.208 D.O.F. 4 RATIO = 140.397E+12  .
 

 ***WARNING: SOLVER PROBLEM. NUMERICAL SINGULARITY WHEN PROCESSING NODE 
             RIBS_CENTRE_SECTION-INSTANCE.208 D.O.F. 5 RATIO = 4.59301E+09.
 

 ***WARNING: SOLVER PROBLEM. NUMERICAL SINGULARITY WHEN PROCESSING NODE 
             RIBS_CENTRE_SECTION-INSTANCE.208 D.O.F. 6 RATIO = 16.0424E+12 .
 

 ***WARNING: SOLVER PROBLEM. NUMERICAL SINGULARITY WHEN PROCESSING NODE 
             RIBS_CENTRE_SECTION-INSTANCE.291 D.O.F. 1 RATIO = 594.192E+12  .
 

 ***WARNING: SOLVER PROBLEM. NUMERICAL SINGULARITY WHEN PROCESSING NODE 
             RIBS_CENTRE_SECTION-INSTANCE.291 D.O.F. 2 RATIO = 69.1879E+15 .
 

 ***WARNING: SOLVER PROBLEM. NUMERICAL SINGULARITY WHEN PROCESSING NODE 
             RIBS_CENTRE_SECTION-INSTANCE.291 D.O.F. 3 RATIO = 1.01749E+15.
 

 ***WARNING: SOLVER PROBLEM. NUMERICAL SINGULARITY WHEN PROCESSING NODE 
             RIBS_CENTRE_SECTION-INSTANCE.291 D.O.F. 4 RATIO = 2.79341E+12.
 

 ***WARNING: SOLVER PROBLEM. NUMERICAL SINGULARITY WHEN PROCESSING NODE 
             RIBS_CENTRE_SECTION-INSTANCE.291 D.O.F. 5 RATIO = 13.0466E+09 .
 

 ***WARNING: SOLVER PROBLEM. NUMERICAL SINGULARITY WHEN PROCESSING NODE 
             RIBS_CENTRE_SECTION-INSTANCE.291 D.O.F. 6 RATIO = 6.10583E+12.
 

 ***WARNING: SOLVER PROBLEM. NUMERICAL SINGULARITY WHEN PROCESSING NODE 
             RIBS_CENTRE_SECTION-INSTANCE.235 D.O.F. 1 RATIO = 3.70456E+15.
 

 ***WARNING: SOLVER PROBLEM. NUMERICAL SINGULARITY WHEN PROCESSING NODE 
             RIBS_CENTRE_SECTION-INSTANCE.235 D.O.F. 2 RATIO = 1.28960E+15.
 

 ***WARNING: SOLVER PROBLEM. NUMERICAL SINGULARITY WHEN PROCESSING NODE 
             RIBS_CENTRE_SECTION-INSTANCE.235 D.O.F. 3 RATIO = 436.199E+15  .
 

 ***WARNING: SOLVER PROBLEM. NUMERICAL SINGULARITY WHEN PROCESSING NODE 
             RIBS_CENTRE_SECTION-INSTANCE.235 D.O.F. 4 RATIO = 96.0786E+12 .
 

 ***WARNING: SOLVER PROBLEM. NUMERICAL SINGULARITY WHEN PROCESSING NODE 
             RIBS_CENTRE_SECTION-INSTANCE.235 D.O.F. 6 RATIO = 5.71258E+12.
 

 ***WARNING: SOLVER PROBLEM. NUMERICAL SINGULARITY WHEN PROCESSING NODE 
             LOWER_STRINGERS_CENTRE_SECTION-INSTANCE.222 D.O.F. 1 RATIO = 
             289.588E+12  .
 

 ***WARNING: SOLVER PROBLEM. NUMERICAL SINGULARITY WHEN PROCESSING NODE 
             LOWER_STRINGERS_CENTRE_SECTION-INSTANCE.222 D.O.F. 2 RATIO = 
             744.706E+12  .
 

 ***WARNING: SOLVER PROBLEM. NUMERICAL SINGULARITY WHEN PROCESSING NODE 
             LOWER_STRINGERS_CENTRE_SECTION-INSTANCE.222 D.O.F. 3 RATIO = 
             446.925E+12  .
 

 ***WARNING: SOLVER PROBLEM. NUMERICAL SINGULARITY WHEN PROCESSING NODE 
             LOWER_STRINGERS_CENTRE_SECTION-INSTANCE.222 D.O.F. 4 RATIO = 
             1.27131E+12.
 

 ***WARNING: SOLVER PROBLEM. NUMERICAL SINGULARITY WHEN PROCESSING NODE 
             LOWER_STRINGERS_CENTRE_SECTION-INSTANCE.222 D.O.F. 5 RATIO = 
             327.543E+12  .
 

 ***WARNING: SOLVER PROBLEM. NUMERICAL SINGULARITY WHEN PROCESSING NODE 
             LOWER_STRINGERS_CENTRE_SECTION-INSTANCE.222 D.O.F. 6 RATIO = 
             586.464E+09  .

               CONVERGENCE CHECKS FOR EQUILIBRIUM ITERATION     1


 AVERAGE FORCE                       498.       TIME AVG. FORCE        498.    
 LARGEST RESIDUAL FORCE            -2.793E-07   AT NODE        180   DOF  3
   INSTANCE: LOWER_SKIN-INSTANCE                                                             
 LARGEST INCREMENT OF DISP.        -3.389E-02   AT NODE         45   DOF  3
   INSTANCE: LOWER_SKIN-INSTANCE                                                             
 LARGEST CORRECTION TO DISP.       -3.389E-02   AT NODE         45   DOF  3
   INSTANCE: LOWER_SKIN-INSTANCE                                                             
          THE FORCE     EQUILIBRIUM RESPONSE WAS LINEAR IN THIS INCREMENT

 AVERAGE MOMENT                      6.77       TIME AVG. MOMENT       6.77    
 LARGEST RESIDUAL MOMENT            1.916E-09   AT NODE        632   DOF  5
   INSTANCE: UPPER_STRINGERS-INSTANCE                                                        
 LARGEST INCREMENT OF ROTATION      3.935E-02   AT NODE         39   DOF  5
   INSTANCE: LOWER_SKIN-INSTANCE                                                             
 LARGEST CORRECTION TO ROTATION     3.935E-02   AT NODE         39   DOF  5
   INSTANCE: LOWER_SKIN-INSTANCE                                                             
          THE MOMENT    EQUILIBRIUM RESPONSE WAS LINEAR IN THIS INCREMENT

 ITERATION SUMMARY FOR THE INCREMENT:   1 TOTAL ITERATIONS, OF WHICH
   0 ARE SEVERE DISCONTINUITY ITERATIONS AND  1 ARE EQUILIBRIUM ITERATIONS.

 TIME INCREMENT COMPLETED  1.000E-02,  FRACTION OF STEP COMPLETED  1.000E-02
 STEP TIME COMPLETED       1.000E-02,  TOTAL TIME COMPLETED        1.000E-02


  INCREMENT     2 STARTS. ATTEMPT NUMBER  1, TIME INCREMENT  1.000E-02
 
	SYMMETRIC DIRECT SPARSE SOLVER RUNNING ON
 	1 HOST:        1 MPI RANK  x 1 THREAD
 	NUMBER OF EQUATIONS:     23088
 	NUMBER OF RHS:           1
 	NUMBER OF FLOPS:         1.594e+09

     CHECK POINT  START OF SOLVER     

     CHECK POINT  END OF SOLVER       

       ELAPSED USER TIME (SEC)      =   0.0000    
       ELAPSED SYSTEM TIME (SEC)    =   0.0000    
       ELAPSED TOTAL CPU TIME (SEC) =   0.0000    
       ELAPSED WALLCLOCK TIME (SEC) =            0

               CONVERGENCE CHECKS FOR EQUILIBRIUM ITERATION     1


 AVERAGE FORCE                      1.177E+03   TIME AVG. FORCE        837.    
 LARGEST RESIDUAL FORCE             4.105E-08   AT NODE        127   DOF  3
   INSTANCE: LOWER_STRINGERS-INSTANCE                                                        
 LARGEST INCREMENT OF DISP.        -3.389E-02   AT NODE         45   DOF  3
   INSTANCE: LOWER_SKIN-INSTANCE                                                             
 LARGEST CORRECTION TO DISP.       -1.129E-11   AT NODE        640   DOF  3
   INSTANCE: UPPER_STRINGERS-INSTANCE                                                        
          THE FORCE     EQUILIBRIUM RESPONSE WAS LINEAR IN THIS INCREMENT

 AVERAGE MOMENT                      18.2       TIME AVG. MOMENT       12.5    
 LARGEST RESIDUAL MOMENT           -9.385E-10   AT NODE        125   DOF  5
   INSTANCE: LOWER_STRINGERS-INSTANCE                                                        
 LARGEST INCREMENT OF ROTATION      3.935E-02   AT NODE         39   DOF  5
   INSTANCE: LOWER_SKIN-INSTANCE                                                             
 LARGEST CORRECTION TO ROTATION     3.071E-11   AT NODE        770   DOF  5
   INSTANCE: UPPER_STRINGERS-INSTANCE                                                        
          THE MOMENT    EQUILIBRIUM RESPONSE WAS LINEAR IN THIS INCREMENT
          TIME INCREMENT MAY NOW INCREASE TO    1.500E-02

 ITERATION SUMMARY FOR THE INCREMENT:   1 TOTAL ITERATIONS, OF WHICH
   0 ARE SEVERE DISCONTINUITY ITERATIONS AND  1 ARE EQUILIBRIUM ITERATIONS.

 TIME INCREMENT COMPLETED  1.000E-02,  FRACTION OF STEP COMPLETED  2.000E-02
 STEP TIME COMPLETED       2.000E-02,  TOTAL TIME COMPLETED        2.000E-02


  INCREMENT     3 STARTS. ATTEMPT NUMBER  1, TIME INCREMENT  1.500E-02
 
	SYMMETRIC DIRECT SPARSE SOLVER RUNNING ON
 	1 HOST:        1 MPI RANK  x 1 THREAD
 	NUMBER OF EQUATIONS:     23088
 	NUMBER OF RHS:           1
 	NUMBER OF FLOPS:         1.594e+09

     CHECK POINT  START OF SOLVER     

     CHECK POINT  END OF SOLVER       

       ELAPSED USER TIME (SEC)      =   0.0000    
       ELAPSED SYSTEM TIME (SEC)    =   0.0000    
       ELAPSED TOTAL CPU TIME (SEC) =   0.0000    
       ELAPSED WALLCLOCK TIME (SEC) =            0

               CONVERGENCE CHECKS FOR EQUILIBRIUM ITERATION     1


 AVERAGE FORCE                      2.058E+03   TIME AVG. FORCE       1.244E+03
 LARGEST RESIDUAL FORCE            -8.623E-08   AT NODE         19   DOF  3
   INSTANCE: UPPER_STRINGERS-INSTANCE                                                        
 LARGEST INCREMENT OF DISP.        -5.083E-02   AT NODE         45   DOF  3
   INSTANCE: LOWER_SKIN-INSTANCE                                                             
 LARGEST CORRECTION TO DISP.        8.467E-12   AT NODE        640   DOF  3
   INSTANCE: UPPER_STRINGERS-INSTANCE                                                        
          THE FORCE     EQUILIBRIUM RESPONSE WAS LINEAR IN THIS INCREMENT

 AVERAGE MOMENT                      31.6       TIME AVG. MOMENT       18.8    
 LARGEST RESIDUAL MOMENT            1.362E-09   AT NODE        155   DOF  5
   INSTANCE: LOWER_STRINGERS-INSTANCE                                                        
 LARGEST INCREMENT OF ROTATION      5.902E-02   AT NODE         39   DOF  5
   INSTANCE: LOWER_SKIN-INSTANCE                                                             
 LARGEST CORRECTION TO ROTATION    -2.303E-11   AT NODE        770   DOF  5
   INSTANCE: UPPER_STRINGERS-INSTANCE                                                        
          THE MOMENT    EQUILIBRIUM RESPONSE WAS LINEAR IN THIS INCREMENT
          TIME INCREMENT MAY NOW INCREASE TO    2.250E-02

 ITERATION SUMMARY FOR THE INCREMENT:   1 TOTAL ITERATIONS, OF WHICH
   0 ARE SEVERE DISCONTINUITY ITERATIONS AND  1 ARE EQUILIBRIUM ITERATIONS.

 TIME INCREMENT COMPLETED  1.500E-02,  FRACTION OF STEP COMPLETED  3.500E-02
 STEP TIME COMPLETED       3.500E-02,  TOTAL TIME COMPLETED        3.500E-02


  INCREMENT     4 STARTS. ATTEMPT NUMBER  1, TIME INCREMENT  2.250E-02
 
	SYMMETRIC DIRECT SPARSE SOLVER RUNNING ON
 	1 HOST:        1 MPI RANK  x 1 THREAD
 	NUMBER OF EQUATIONS:     23088
 	NUMBER OF RHS:           1
 	NUMBER OF FLOPS:         1.594e+09

     CHECK POINT  START OF SOLVER     

     CHECK POINT  END OF SOLVER       

       ELAPSED USER TIME (SEC)      =   0.0000    
       ELAPSED SYSTEM TIME (SEC)    =   0.0000    
       ELAPSED TOTAL CPU TIME (SEC) =   0.0000    
       ELAPSED WALLCLOCK TIME (SEC) =            0

               CONVERGENCE CHECKS FOR EQUILIBRIUM ITERATION     1


 AVERAGE FORCE                      3.380E+03   TIME AVG. FORCE       1.778E+03
 LARGEST RESIDUAL FORCE             8.728E-08   AT NODE        134   DOF  3
   INSTANCE: LOWER_SKIN-INSTANCE                                                             
 LARGEST INCREMENT OF DISP.        -7.625E-02   AT NODE         45   DOF  3
   INSTANCE: LOWER_SKIN-INSTANCE                                                             
 LARGEST CORRECTION TO DISP.       -3.691E-16   AT NODE        188   DOF  3
   INSTANCE: LOWER_SKIN_CENTRE_SECTION-INSTANCE                                              
          THE FORCE     EQUILIBRIUM RESPONSE WAS LINEAR IN THIS INCREMENT

 AVERAGE MOMENT                      51.5       TIME AVG. MOMENT       27.0    
 LARGEST RESIDUAL MOMENT           -2.233E-09   AT NODE        134   DOF  5
   INSTANCE: LOWER_STRINGERS-INSTANCE                                                        
 LARGEST INCREMENT OF ROTATION      8.853E-02   AT NODE         39   DOF  5
   INSTANCE: LOWER_SKIN-INSTANCE                                                             
 LARGEST CORRECTION TO ROTATION     3.904E-15   AT NODE         42   DOF  5
   INSTANCE: LOWER_SKIN-INSTANCE                                                             
          THE MOMENT    EQUILIBRIUM RESPONSE WAS LINEAR IN THIS INCREMENT
          TIME INCREMENT MAY NOW INCREASE TO    3.375E-02

 ITERATION SUMMARY FOR THE INCREMENT:   1 TOTAL ITERATIONS, OF WHICH
   0 ARE SEVERE DISCONTINUITY ITERATIONS AND  1 ARE EQUILIBRIUM ITERATIONS.

 TIME INCREMENT COMPLETED  2.250E-02,  FRACTION OF STEP COMPLETED  5.750E-02
 STEP TIME COMPLETED       5.750E-02,  TOTAL TIME COMPLETED        5.750E-02


  INCREMENT     5 STARTS. ATTEMPT NUMBER  1, TIME INCREMENT  3.375E-02
 
	SYMMETRIC DIRECT SPARSE SOLVER RUNNING ON
 	1 HOST:        1 MPI RANK  x 1 THREAD
 	NUMBER OF EQUATIONS:     23088
 	NUMBER OF RHS:           1
 	NUMBER OF FLOPS:         1.594e+09

     CHECK POINT  START OF SOLVER     

     CHECK POINT  END OF SOLVER       

       ELAPSED USER TIME (SEC)      =   0.0000    
       ELAPSED SYSTEM TIME (SEC)    =   0.0000    
       ELAPSED TOTAL CPU TIME (SEC) =   0.0000    
       ELAPSED WALLCLOCK TIME (SEC) =            1

               CONVERGENCE CHECKS FOR EQUILIBRIUM ITERATION     1


 AVERAGE FORCE                      5.362E+03   TIME AVG. FORCE       2.495E+03
 LARGEST RESIDUAL FORCE            -1.347E-07   AT NODE        205   DOF  3
   INSTANCE: UPPER_SKIN-INSTANCE                                                             
 LARGEST INCREMENT OF DISP.        -0.114       AT NODE         45   DOF  3
   INSTANCE: LOWER_SKIN-INSTANCE                                                             
 LARGEST CORRECTION TO DISP.       -7.078E-16   AT NODE         20   DOF  3
   INSTANCE: LOWER_SKIN_CENTRE_SECTION-INSTANCE                                              
          THE FORCE     EQUILIBRIUM RESPONSE WAS LINEAR IN THIS INCREMENT

 AVERAGE MOMENT                      81.1       TIME AVG. MOMENT       37.8    
 LARGEST RESIDUAL MOMENT           -2.860E-09   AT NODE        152   DOF  5
   INSTANCE: LOWER_STRINGERS-INSTANCE                                                        
 LARGEST INCREMENT OF ROTATION      0.133       AT NODE         39   DOF  5
   INSTANCE: LOWER_SKIN-INSTANCE                                                             
 LARGEST CORRECTION TO ROTATION     9.096E-15   AT NODE        333   DOF  4
   INSTANCE: LOWER_SKIN-INSTANCE                                                             
          THE MOMENT    EQUILIBRIUM RESPONSE WAS LINEAR IN THIS INCREMENT
          TIME INCREMENT MAY NOW INCREASE TO    5.063E-02

 ITERATION SUMMARY FOR THE INCREMENT:   1 TOTAL ITERATIONS, OF WHICH
   0 ARE SEVERE DISCONTINUITY ITERATIONS AND  1 ARE EQUILIBRIUM ITERATIONS.

 TIME INCREMENT COMPLETED  3.375E-02,  FRACTION OF STEP COMPLETED  9.125E-02
 STEP TIME COMPLETED       9.125E-02,  TOTAL TIME COMPLETED        9.125E-02


  INCREMENT     6 STARTS. ATTEMPT NUMBER  1, TIME INCREMENT  5.063E-02
 
	SYMMETRIC DIRECT SPARSE SOLVER RUNNING ON
 	1 HOST:        1 MPI RANK  x 1 THREAD
 	NUMBER OF EQUATIONS:     23088
 	NUMBER OF RHS:           1
 	NUMBER OF FLOPS:         1.594e+09

     CHECK POINT  START OF SOLVER     

     CHECK POINT  END OF SOLVER       

       ELAPSED USER TIME (SEC)      =  0.10000    
       ELAPSED SYSTEM TIME (SEC)    =   0.0000    
       ELAPSED TOTAL CPU TIME (SEC) =  0.10000    
       ELAPSED WALLCLOCK TIME (SEC) =            0

               CONVERGENCE CHECKS FOR EQUILIBRIUM ITERATION     1


 AVERAGE FORCE                      8.336E+03   TIME AVG. FORCE       3.468E+03
 LARGEST RESIDUAL FORCE             2.136E-07   AT NODE         12   DOF  3
   INSTANCE: UPPER_STRINGERS-INSTANCE                                                        
 LARGEST INCREMENT OF DISP.        -0.172       AT NODE         45   DOF  3
   INSTANCE: LOWER_SKIN-INSTANCE                                                             
 LARGEST CORRECTION TO DISP.        9.714E-16   AT NODE         24   DOF  3
   INSTANCE: LOWER_SKIN_CENTRE_SECTION-INSTANCE                                              
          THE FORCE     EQUILIBRIUM RESPONSE WAS LINEAR IN THIS INCREMENT

 AVERAGE MOMENT                      125.       TIME AVG. MOMENT       52.4    
 LARGEST RESIDUAL MOMENT           -4.291E-09   AT NODE        125   DOF  5
   INSTANCE: LOWER_STRINGERS-INSTANCE                                                        
 LARGEST INCREMENT OF ROTATION      0.199       AT NODE         39   DOF  5
   INSTANCE: LOWER_SKIN-INSTANCE                                                             
 LARGEST CORRECTION TO ROTATION    -1.944E-14   AT NODE        331   DOF  4
   INSTANCE: LOWER_SKIN-INSTANCE                                                             
          THE MOMENT    EQUILIBRIUM RESPONSE WAS LINEAR IN THIS INCREMENT
          TIME INCREMENT MAY NOW INCREASE TO    7.594E-02

 ITERATION SUMMARY FOR THE INCREMENT:   1 TOTAL ITERATIONS, OF WHICH
   0 ARE SEVERE DISCONTINUITY ITERATIONS AND  1 ARE EQUILIBRIUM ITERATIONS.

 TIME INCREMENT COMPLETED  5.063E-02,  FRACTION OF STEP COMPLETED  0.142    
 STEP TIME COMPLETED       0.142    ,  TOTAL TIME COMPLETED        0.142    


  INCREMENT     7 STARTS. ATTEMPT NUMBER  1, TIME INCREMENT  7.594E-02
 
	SYMMETRIC DIRECT SPARSE SOLVER RUNNING ON
 	1 HOST:        1 MPI RANK  x 1 THREAD
 	NUMBER OF EQUATIONS:     23088
 	NUMBER OF RHS:           1
 	NUMBER OF FLOPS:         1.594e+09

     CHECK POINT  START OF SOLVER     

     CHECK POINT  END OF SOLVER       

       ELAPSED USER TIME (SEC)      =   0.0000    
       ELAPSED SYSTEM TIME (SEC)    =  0.10000    
       ELAPSED TOTAL CPU TIME (SEC) =  0.10000    
       ELAPSED WALLCLOCK TIME (SEC) =            0

               CONVERGENCE CHECKS FOR EQUILIBRIUM ITERATION     1


 AVERAGE FORCE                      1.279E+04   TIME AVG. FORCE       4.800E+03
 LARGEST RESIDUAL FORCE            -3.608E-07   AT NODE        464   DOF  3
   INSTANCE: UPPER_STRINGERS-INSTANCE                                                        
 LARGEST INCREMENT OF DISP.        -0.257       AT NODE         45   DOF  3
   INSTANCE: LOWER_SKIN-INSTANCE                                                             
 LARGEST CORRECTION TO DISP.        1.106E-15   AT NODE        191   DOF  3
   INSTANCE: LOWER_SKIN_CENTRE_SECTION-INSTANCE                                              
          THE FORCE     EQUILIBRIUM RESPONSE WAS LINEAR IN THIS INCREMENT

 AVERAGE MOMENT                      191.       TIME AVG. MOMENT       72.2    
 LARGEST RESIDUAL MOMENT           -8.385E-09   AT NODE        153   DOF  4
   INSTANCE: LOWER_STRINGERS-INSTANCE                                                        
 LARGEST INCREMENT OF ROTATION      0.299       AT NODE         39   DOF  5
   INSTANCE: LOWER_SKIN-INSTANCE                                                             
 LARGEST CORRECTION TO ROTATION     2.018E-14   AT NODE        331   DOF  4
   INSTANCE: LOWER_SKIN-INSTANCE                                                             
          THE MOMENT    EQUILIBRIUM RESPONSE WAS LINEAR IN THIS INCREMENT
          TIME INCREMENT MAY NOW INCREASE TO    0.100    

 ITERATION SUMMARY FOR THE INCREMENT:   1 TOTAL ITERATIONS, OF WHICH
   0 ARE SEVERE DISCONTINUITY ITERATIONS AND  1 ARE EQUILIBRIUM ITERATIONS.

 TIME INCREMENT COMPLETED  7.594E-02,  FRACTION OF STEP COMPLETED  0.218    
 STEP TIME COMPLETED       0.218    ,  TOTAL TIME COMPLETED        0.218    


  INCREMENT     8 STARTS. ATTEMPT NUMBER  1, TIME INCREMENT  0.100    
 
	SYMMETRIC DIRECT SPARSE SOLVER RUNNING ON
 	1 HOST:        1 MPI RANK  x 1 THREAD
 	NUMBER OF EQUATIONS:     23088
 	NUMBER OF RHS:           1
 	NUMBER OF FLOPS:         1.594e+09

     CHECK POINT  START OF SOLVER     

     CHECK POINT  END OF SOLVER       

       ELAPSED USER TIME (SEC)      =   0.0000    
       ELAPSED SYSTEM TIME (SEC)    =   0.0000    
       ELAPSED TOTAL CPU TIME (SEC) =   0.0000    
       ELAPSED WALLCLOCK TIME (SEC) =            0

               CONVERGENCE CHECKS FOR EQUILIBRIUM ITERATION     1


 AVERAGE FORCE                      1.866E+04   TIME AVG. FORCE       6.533E+03
 LARGEST RESIDUAL FORCE             4.013E-07   AT NODE        135   DOF  3
   INSTANCE: LOWER_SKIN-INSTANCE                                                             
 LARGEST INCREMENT OF DISP.        -0.339       AT NODE         45   DOF  3
   INSTANCE: LOWER_SKIN-INSTANCE                                                             
 LARGEST CORRECTION TO DISP.        1.499E-15   AT NODE         24   DOF  3
   INSTANCE: LOWER_SKIN_CENTRE_SECTION-INSTANCE                                              
          THE FORCE     EQUILIBRIUM RESPONSE WAS LINEAR IN THIS INCREMENT

 AVERAGE MOMENT                      278.       TIME AVG. MOMENT       98.0    
 LARGEST RESIDUAL MOMENT           -1.535E-08   AT NODE        126   DOF  4
   INSTANCE: LOWER_STRINGERS-INSTANCE                                                        
 LARGEST INCREMENT OF ROTATION      0.393       AT NODE         39   DOF  5
   INSTANCE: LOWER_SKIN-INSTANCE                                                             
 LARGEST CORRECTION TO ROTATION    -2.182E-14   AT NODE        331   DOF  4
   INSTANCE: LOWER_SKIN-INSTANCE                                                             
          THE MOMENT    EQUILIBRIUM RESPONSE WAS LINEAR IN THIS INCREMENT

 ITERATION SUMMARY FOR THE INCREMENT:   1 TOTAL ITERATIONS, OF WHICH
   0 ARE SEVERE DISCONTINUITY ITERATIONS AND  1 ARE EQUILIBRIUM ITERATIONS.

 TIME INCREMENT COMPLETED  0.100    ,  FRACTION OF STEP COMPLETED  0.318    
 STEP TIME COMPLETED       0.318    ,  TOTAL TIME COMPLETED        0.318    


  INCREMENT     9 STARTS. ATTEMPT NUMBER  1, TIME INCREMENT  0.100    
 
	SYMMETRIC DIRECT SPARSE SOLVER RUNNING ON
 	1 HOST:        1 MPI RANK  x 1 THREAD
 	NUMBER OF EQUATIONS:     23088
 	NUMBER OF RHS:           1
 	NUMBER OF FLOPS:         1.594e+09

     CHECK POINT  START OF SOLVER     

     CHECK POINT  END OF SOLVER       

       ELAPSED USER TIME (SEC)      =  0.10000    
       ELAPSED SYSTEM TIME (SEC)    =   0.0000    
       ELAPSED TOTAL CPU TIME (SEC) =  0.10000    
       ELAPSED WALLCLOCK TIME (SEC) =            0

               CONVERGENCE CHECKS FOR EQUILIBRIUM ITERATION     1


 AVERAGE FORCE                      2.453E+04   TIME AVG. FORCE       8.533E+03
 LARGEST RESIDUAL FORCE            -4.608E-07   AT NODE         19   DOF  3
   INSTANCE: UPPER_STRINGERS-INSTANCE                                                        
 LARGEST INCREMENT OF DISP.        -0.339       AT NODE         45   DOF  3
   INSTANCE: LOWER_SKIN-INSTANCE                                                             
 LARGEST CORRECTION TO DISP.       -3.287E-15   AT NODE        215   DOF  3
   INSTANCE: LOWER_SKIN_CENTRE_SECTION-INSTANCE                                              
          THE FORCE     EQUILIBRIUM RESPONSE WAS LINEAR IN THIS INCREMENT

 AVERAGE MOMENT                      366.       TIME AVG. MOMENT       128.    
 LARGEST RESIDUAL MOMENT            1.606E-08   AT NODE        200   DOF  5
   INSTANCE: LOWER_STRINGERS-INSTANCE                                                        
 LARGEST INCREMENT OF ROTATION      0.393       AT NODE         39   DOF  5
   INSTANCE: LOWER_SKIN-INSTANCE                                                             
 LARGEST CORRECTION TO ROTATION    -2.599E-14   AT NODE        203   DOF  5
   INSTANCE: LOWER_SKIN_CENTRE_SECTION-INSTANCE                                              
          THE MOMENT    EQUILIBRIUM RESPONSE WAS LINEAR IN THIS INCREMENT

 ITERATION SUMMARY FOR THE INCREMENT:   1 TOTAL ITERATIONS, OF WHICH
   0 ARE SEVERE DISCONTINUITY ITERATIONS AND  1 ARE EQUILIBRIUM ITERATIONS.

 TIME INCREMENT COMPLETED  0.100    ,  FRACTION OF STEP COMPLETED  0.418    
 STEP TIME COMPLETED       0.418    ,  TOTAL TIME COMPLETED        0.418    


  INCREMENT    10 STARTS. ATTEMPT NUMBER  1, TIME INCREMENT  0.100    
 
	SYMMETRIC DIRECT SPARSE SOLVER RUNNING ON
 	1 HOST:        1 MPI RANK  x 1 THREAD
 	NUMBER OF EQUATIONS:     23088
 	NUMBER OF RHS:           1
 	NUMBER OF FLOPS:         1.594e+09

     CHECK POINT  START OF SOLVER     

     CHECK POINT  END OF SOLVER       

       ELAPSED USER TIME (SEC)      =   0.0000    
       ELAPSED SYSTEM TIME (SEC)    =   0.0000    
       ELAPSED TOTAL CPU TIME (SEC) =   0.0000    
       ELAPSED WALLCLOCK TIME (SEC) =            0

               CONVERGENCE CHECKS FOR EQUILIBRIUM ITERATION     1


 AVERAGE FORCE                      3.041E+04   TIME AVG. FORCE       1.072E+04
 LARGEST RESIDUAL FORCE            -9.505E-07   AT NODE         12   DOF  3
   INSTANCE: LOWER_STRINGERS-INSTANCE                                                        
 LARGEST INCREMENT OF DISP.        -0.339       AT NODE         45   DOF  3
   INSTANCE: LOWER_SKIN-INSTANCE                                                             
 LARGEST CORRECTION TO DISP.        5.218E-15   AT NODE         21   DOF  3
   INSTANCE: LOWER_SKIN_CENTRE_SECTION-INSTANCE                                              
          THE FORCE     EQUILIBRIUM RESPONSE WAS LINEAR IN THIS INCREMENT

 AVERAGE MOMENT                      455.       TIME AVG. MOMENT       161.    
 LARGEST RESIDUAL MOMENT           -1.733E-08   AT NODE        130   DOF  5
   INSTANCE: LOWER_STRINGERS-INSTANCE                                                        
 LARGEST INCREMENT OF ROTATION      0.393       AT NODE         39   DOF  5
   INSTANCE: LOWER_SKIN-INSTANCE                                                             
 LARGEST CORRECTION TO ROTATION    -2.729E-14   AT NODE        465   DOF  4
   INSTANCE: UPPER_SKIN-INSTANCE                                                             
          THE MOMENT    EQUILIBRIUM RESPONSE WAS LINEAR IN THIS INCREMENT

 ITERATION SUMMARY FOR THE INCREMENT:   1 TOTAL ITERATIONS, OF WHICH
   0 ARE SEVERE DISCONTINUITY ITERATIONS AND  1 ARE EQUILIBRIUM ITERATIONS.

 TIME INCREMENT COMPLETED  0.100    ,  FRACTION OF STEP COMPLETED  0.518    
 STEP TIME COMPLETED       0.518    ,  TOTAL TIME COMPLETED        0.518    


  INCREMENT    11 STARTS. ATTEMPT NUMBER  1, TIME INCREMENT  0.100    
 
	SYMMETRIC DIRECT SPARSE SOLVER RUNNING ON
 	1 HOST:        1 MPI RANK  x 1 THREAD
 	NUMBER OF EQUATIONS:     23088
 	NUMBER OF RHS:           1
 	NUMBER OF FLOPS:         1.594e+09

     CHECK POINT  START OF SOLVER     

     CHECK POINT  END OF SOLVER       

       ELAPSED USER TIME (SEC)      =   0.0000    
       ELAPSED SYSTEM TIME (SEC)    =   0.0000    
       ELAPSED TOTAL CPU TIME (SEC) =   0.0000    
       ELAPSED WALLCLOCK TIME (SEC) =            0

               CONVERGENCE CHECKS FOR EQUILIBRIUM ITERATION     1


 AVERAGE FORCE                      3.630E+04   TIME AVG. FORCE       1.305E+04
 LARGEST RESIDUAL FORCE             5.378E-07   AT NODE        230   DOF  3
   INSTANCE: LOWER_STRINGERS-INSTANCE                                                        
 LARGEST INCREMENT OF DISP.        -0.339       AT NODE         45   DOF  3
   INSTANCE: LOWER_SKIN-INSTANCE                                                             
 LARGEST CORRECTION TO DISP.       -7.383E-15   AT NODE         23   DOF  3
   INSTANCE: LOWER_SKIN_CENTRE_SECTION-INSTANCE                                              
          THE FORCE     EQUILIBRIUM RESPONSE WAS LINEAR IN THIS INCREMENT

 AVERAGE MOMENT                      545.       TIME AVG. MOMENT       195.    
 LARGEST RESIDUAL MOMENT            2.448E-08   AT NODE        205   DOF  5
   INSTANCE: LOWER_STRINGERS-INSTANCE                                                        
 LARGEST INCREMENT OF ROTATION      0.393       AT NODE         39   DOF  5
   INSTANCE: LOWER_SKIN-INSTANCE                                                             
 LARGEST CORRECTION TO ROTATION    -3.746E-14   AT NODE        491   DOF  4
   INSTANCE: UPPER_SKIN-INSTANCE                                                             
          THE MOMENT    EQUILIBRIUM RESPONSE WAS LINEAR IN THIS INCREMENT

 ITERATION SUMMARY FOR THE INCREMENT:   1 TOTAL ITERATIONS, OF WHICH
   0 ARE SEVERE DISCONTINUITY ITERATIONS AND  1 ARE EQUILIBRIUM ITERATIONS.

 TIME INCREMENT COMPLETED  0.100    ,  FRACTION OF STEP COMPLETED  0.618    
 STEP TIME COMPLETED       0.618    ,  TOTAL TIME COMPLETED        0.618    


  INCREMENT    12 STARTS. ATTEMPT NUMBER  1, TIME INCREMENT  0.100    
 
	SYMMETRIC DIRECT SPARSE SOLVER RUNNING ON
 	1 HOST:        1 MPI RANK  x 1 THREAD
 	NUMBER OF EQUATIONS:     23088
 	NUMBER OF RHS:           1
 	NUMBER OF FLOPS:         1.594e+09

     CHECK POINT  START OF SOLVER     

     CHECK POINT  END OF SOLVER       

       ELAPSED USER TIME (SEC)      =   0.0000    
       ELAPSED SYSTEM TIME (SEC)    =   0.0000    
       ELAPSED TOTAL CPU TIME (SEC) =   0.0000    
       ELAPSED WALLCLOCK TIME (SEC) =            0

               CONVERGENCE CHECKS FOR EQUILIBRIUM ITERATION     1


 AVERAGE FORCE                      4.217E+04   TIME AVG. FORCE       1.547E+04
 LARGEST RESIDUAL FORCE             1.090E-06   AT NODE         12   DOF  3
   INSTANCE: LOWER_STRINGERS-INSTANCE                                                        
 LARGEST INCREMENT OF DISP.        -0.339       AT NODE         45   DOF  3
   INSTANCE: LOWER_SKIN-INSTANCE                                                             
 LARGEST CORRECTION TO DISP.        8.427E-15   AT NODE         13   DOF  3
   INSTANCE: LOWER_STRINGERS-INSTANCE                                                        
          THE FORCE     EQUILIBRIUM RESPONSE WAS LINEAR IN THIS INCREMENT

 AVERAGE MOMENT                      635.       TIME AVG. MOMENT       232.    
 LARGEST RESIDUAL MOMENT           -2.402E-08   AT NODE        224   DOF  4
   INSTANCE: LOWER_STRINGERS-INSTANCE                                                        
 LARGEST INCREMENT OF ROTATION      0.393       AT NODE         39   DOF  5
   INSTANCE: LOWER_SKIN-INSTANCE                                                             
 LARGEST CORRECTION TO ROTATION    -5.989E-14   AT NODE        371   DOF  4
   INSTANCE: LOWER_SKIN-INSTANCE                                                             
          THE MOMENT    EQUILIBRIUM RESPONSE WAS LINEAR IN THIS INCREMENT

 ITERATION SUMMARY FOR THE INCREMENT:   1 TOTAL ITERATIONS, OF WHICH
   0 ARE SEVERE DISCONTINUITY ITERATIONS AND  1 ARE EQUILIBRIUM ITERATIONS.

 TIME INCREMENT COMPLETED  0.100    ,  FRACTION OF STEP COMPLETED  0.718    
 STEP TIME COMPLETED       0.718    ,  TOTAL TIME COMPLETED        0.718    


  INCREMENT    13 STARTS. ATTEMPT NUMBER  1, TIME INCREMENT  0.100    
 
	SYMMETRIC DIRECT SPARSE SOLVER RUNNING ON
 	1 HOST:        1 MPI RANK  x 1 THREAD
 	NUMBER OF EQUATIONS:     23088
 	NUMBER OF RHS:           1
 	NUMBER OF FLOPS:         1.594e+09

     CHECK POINT  START OF SOLVER     

     CHECK POINT  END OF SOLVER       

       ELAPSED USER TIME (SEC)      =   0.0000    
       ELAPSED SYSTEM TIME (SEC)    =   0.0000    
       ELAPSED TOTAL CPU TIME (SEC) =   0.0000    
       ELAPSED WALLCLOCK TIME (SEC) =            0

               CONVERGENCE CHECKS FOR EQUILIBRIUM ITERATION     1


 AVERAGE FORCE                      4.805E+04   TIME AVG. FORCE       1.798E+04
 LARGEST RESIDUAL FORCE             1.022E-06   AT NODE        203   DOF  3
   INSTANCE: LOWER_STRINGERS-INSTANCE                                                        
 LARGEST INCREMENT OF DISP.        -0.339       AT NODE         45   DOF  3
   INSTANCE: LOWER_SKIN-INSTANCE                                                             
 LARGEST CORRECTION TO DISP.       -6.127E-15   AT NODE         44   DOF  3
   INSTANCE: LOWER_SKIN-INSTANCE                                                             
          THE FORCE     EQUILIBRIUM RESPONSE WAS LINEAR IN THIS INCREMENT

 AVERAGE MOMENT                      725.       TIME AVG. MOMENT       270.    
 LARGEST RESIDUAL MOMENT           -3.484E-08   AT NODE        224   DOF  5
   INSTANCE: LOWER_STRINGERS-INSTANCE                                                        
 LARGEST INCREMENT OF ROTATION      0.393       AT NODE         39   DOF  5
   INSTANCE: LOWER_SKIN-INSTANCE                                                             
 LARGEST CORRECTION TO ROTATION     8.116E-14   AT NODE        331   DOF  4
   INSTANCE: LOWER_SKIN-INSTANCE                                                             
          THE MOMENT    EQUILIBRIUM RESPONSE WAS LINEAR IN THIS INCREMENT

 ITERATION SUMMARY FOR THE INCREMENT:   1 TOTAL ITERATIONS, OF WHICH
   0 ARE SEVERE DISCONTINUITY ITERATIONS AND  1 ARE EQUILIBRIUM ITERATIONS.

 TIME INCREMENT COMPLETED  0.100    ,  FRACTION OF STEP COMPLETED  0.818    
 STEP TIME COMPLETED       0.818    ,  TOTAL TIME COMPLETED        0.818    


  INCREMENT    14 STARTS. ATTEMPT NUMBER  1, TIME INCREMENT  0.100    
 
	SYMMETRIC DIRECT SPARSE SOLVER RUNNING ON
 	1 HOST:        1 MPI RANK  x 1 THREAD
 	NUMBER OF EQUATIONS:     23088
 	NUMBER OF RHS:           1
 	NUMBER OF FLOPS:         1.594e+09

     CHECK POINT  START OF SOLVER     

     CHECK POINT  END OF SOLVER       

       ELAPSED USER TIME (SEC)      =   0.0000    
       ELAPSED SYSTEM TIME (SEC)    =   0.0000    
       ELAPSED TOTAL CPU TIME (SEC) =   0.0000    
       ELAPSED WALLCLOCK TIME (SEC) =            0

               CONVERGENCE CHECKS FOR EQUILIBRIUM ITERATION     1


 AVERAGE FORCE                      5.393E+04   TIME AVG. FORCE       2.055E+04
 LARGEST RESIDUAL FORCE            -6.013E-07   AT NODE         12   DOF  3
   INSTANCE: UPPER_STRINGERS-INSTANCE                                                        
 LARGEST INCREMENT OF DISP.        -0.339       AT NODE         45   DOF  3
   INSTANCE: LOWER_SKIN-INSTANCE                                                             
 LARGEST CORRECTION TO DISP.       -5.623E-15   AT NODE        205   DOF  3
   INSTANCE: LOWER_SKIN_CENTRE_SECTION-INSTANCE                                              
          THE FORCE     EQUILIBRIUM RESPONSE WAS LINEAR IN THIS INCREMENT

 AVERAGE MOMENT                      815.       TIME AVG. MOMENT       309.    
 LARGEST RESIDUAL MOMENT           -3.088E-08   AT NODE        160   DOF  4
   INSTANCE: LOWER_STRINGERS-INSTANCE                                                        
 LARGEST INCREMENT OF ROTATION      0.393       AT NODE         39   DOF  5
   INSTANCE: LOWER_SKIN-INSTANCE                                                             
 LARGEST CORRECTION TO ROTATION    -7.101E-14   AT NODE        331   DOF  4
   INSTANCE: LOWER_SKIN-INSTANCE                                                             
          THE MOMENT    EQUILIBRIUM RESPONSE WAS LINEAR IN THIS INCREMENT

 ITERATION SUMMARY FOR THE INCREMENT:   1 TOTAL ITERATIONS, OF WHICH
   0 ARE SEVERE DISCONTINUITY ITERATIONS AND  1 ARE EQUILIBRIUM ITERATIONS.

 TIME INCREMENT COMPLETED  0.100    ,  FRACTION OF STEP COMPLETED  0.918    
 STEP TIME COMPLETED       0.918    ,  TOTAL TIME COMPLETED        0.918    


  INCREMENT    15 STARTS. ATTEMPT NUMBER  1, TIME INCREMENT  8.219E-02
 
	SYMMETRIC DIRECT SPARSE SOLVER RUNNING ON
 	1 HOST:        1 MPI RANK  x 1 THREAD
 	NUMBER OF EQUATIONS:     23088
 	NUMBER OF RHS:           1
 	NUMBER OF FLOPS:         1.594e+09

     CHECK POINT  START OF SOLVER     

     CHECK POINT  END OF SOLVER       

       ELAPSED USER TIME (SEC)      =   0.0000    
       ELAPSED SYSTEM TIME (SEC)    =   0.0000    
       ELAPSED TOTAL CPU TIME (SEC) =   0.0000    
       ELAPSED WALLCLOCK TIME (SEC) =            0

               CONVERGENCE CHECKS FOR EQUILIBRIUM ITERATION     1


 AVERAGE FORCE                      5.877E+04   TIME AVG. FORCE       2.310E+04
 LARGEST RESIDUAL FORCE             8.774E-07   AT NODE         19   DOF  3
   INSTANCE: UPPER_STRINGERS-INSTANCE                                                        
 LARGEST INCREMENT OF DISP.        -0.279       AT NODE         45   DOF  3
   INSTANCE: LOWER_SKIN-INSTANCE                                                             
 LARGEST CORRECTION TO DISP.        2.952E-15   AT NODE        369   DOF  3
   INSTANCE: LOWER_SKIN-INSTANCE                                                             
          THE FORCE     EQUILIBRIUM RESPONSE WAS LINEAR IN THIS INCREMENT

 AVERAGE MOMENT                      891.       TIME AVG. MOMENT       348.    
 LARGEST RESIDUAL MOMENT           -3.379E-08   AT NODE        203   DOF  5
   INSTANCE: LOWER_STRINGERS-INSTANCE                                                        
 LARGEST INCREMENT OF ROTATION      0.323       AT NODE         39   DOF  5
   INSTANCE: LOWER_SKIN-INSTANCE                                                             
 LARGEST CORRECTION TO ROTATION     1.051E-13   AT NODE        427   DOF  4
   INSTANCE: LOWER_SKIN-INSTANCE                                                             
          THE MOMENT    EQUILIBRIUM RESPONSE WAS LINEAR IN THIS INCREMENT

 ITERATION SUMMARY FOR THE INCREMENT:   1 TOTAL ITERATIONS, OF WHICH
   0 ARE SEVERE DISCONTINUITY ITERATIONS AND  1 ARE EQUILIBRIUM ITERATIONS.

 TIME INCREMENT COMPLETED  8.219E-02,  FRACTION OF STEP COMPLETED   1.00    
 STEP TIME COMPLETED        1.00    ,  TOTAL TIME COMPLETED         1.00    


          THE ANALYSIS HAS BEEN COMPLETED



     ANALYSIS SUMMARY:
     TOTAL OF         15  INCREMENTS
                       0  CUTBACKS IN AUTOMATIC INCREMENTATION
                      15  ITERATIONS INCLUDING CONTACT ITERATIONS IF PRESENT
                      15  PASSES THROUGH THE EQUATION SOLVER OF WHICH 
                       1  INVOLVE MATRIX DECOMPOSITION, INCLUDING
                       0  DECOMPOSITION(S) OF THE MASS MATRIX
                       1  REORDERING OF EQUATIONS TO MINIMIZE WAVEFRONT
                       0  ADDITIONAL RESIDUAL EVALUATIONS FOR LINE SEARCHES
                       0  ADDITIONAL OPERATOR EVALUATIONS FOR LINE SEARCHES
                     297  WARNING MESSAGES DURING USER INPUT PROCESSING
                      95  WARNING MESSAGES DURING ANALYSIS
                      94  ANALYSIS WARNINGS ARE NUMERICAL PROBLEM MESSAGES
                       0  ANALYSIS WARNINGS ARE NEGATIVE EIGENVALUE MESSAGES
                       0  ERROR MESSAGES



     JOB TIME SUMMARY
       USER TIME (SEC)      =      4.6    
       SYSTEM TIME (SEC)    =     0.30    
       TOTAL CPU TIME (SEC) =      4.9    
       WALLCLOCK TIME (SEC) =            6
       MEMORY PEAK (GB)     =            0
