*Heading
** Job name: ParaPy Project Model name: ParaPy Model
** Generated by: ParaPy abaqus 0.1.15
*PrePrint, ECHO=NO, MODEL=NO, HISTORY=NO, CONTACT=NO
** 
** PARTS
** 
*Part, NAME=Upper_Skin
*Node
687, -0.719373901320606, 6.827777777777777, 0.18623311098512116
157, -0.8920095360943141, 9.509999999999998, 0.20814588245114926
530, -3.160954397896644, 2.96875, 0.3090510271314947
312, -0.32121937847963333, 7.01666666666666, 0.15070728628982694
572, -1.584763518317314, 4.156249999999998, 0.22170841621259235
778, 1.1033253647318773, 12.49444444444444, 0.14153092516404603
452, -2.1385038623763757, 1.1875, 0.29917669034645494
665, -1.9857352846135403, 5.316666666666667, 0.23061451689098506
403, -3.3175193118818784, 3.1666666666666665, 0.31193528249854674
420, -2.28616795412546, 0.3958333333333335, 0.3198348967821517
636, 0.7108393266422725, 12.68333333333333, 0.15889574780346383
435, -1.9357939197195537, 0.7916666666666665, 0.2980016468413986
190, 1.7175560399153267, 15.551538461538444, 0.1327689049924847
558, -2.0732444552398204, 3.760416666666666, 0.24928691329803598
500, -1.9170077247527517, 2.375, 0.26818938069290993
596, -2.422842924097635, 5.127777777777777, 0.24776079123863304
265, 2.750591772064227, 15.894444444444444, 0.07167790480704524
458, -3.742381759158658, 1.1875, 0.3658980108525979
481, -3.2951031645424163, 1.78125, 0.3364046861523611
50, -2.163333333333334, 0.0, 0.32198266666666664
** ... 822 like lines cut
*Element, TYPE=S4R
393, 2, 37, 410, 75
394, 37, 36, 409, 410
395, 36, 35, 408, 409
396, 35, 34, 407, 408
397, 34, 33, 406, 407
398, 33, 32, 405, 406
399, 32, 31, 404, 405
400, 31, 30, 403, 404
401, 30, 29, 402, 403
402, 29, 28, 401, 402
403, 28, 27, 400, 401
405, 26, 25, 399, 400
406, 25, 24, 398, 399
407, 24, 23, 397, 398
408, 23, 22, 396, 397
409, 22, 21, 395, 396
410, 21, 20, 394, 395
411, 20, 19, 393, 394
412, 19, 18, 392, 393
413, 18, 17, 391, 392
** ... 713 like lines cut
*Element, TYPE=S3R
404, 27, 26, 400
418, 13, 1, 38
419, 38, 39, 388
421, 40, 41, 418
424, 43, 44, 416
428, 47, 48, 413
431, 50, 51, 411
722, 164, 163, 625
754, 132, 2, 75
755, 75, 76, 595
756, 76, 77, 595
758, 78, 79, 659
760, 80, 81, 658
762, 82, 83, 657
*ElSet, ELSET=Upper_Skin
393, 394, 395, 396, 397, 398, 399, 400, 
401, 402, 403, 404, 405, 406, 407, 408, 
409, 410, 411, 412, 413, 414, 415, 416, 
417, 418, 419, 420, 421, 422, 423, 424, 
425, 426, 427, 428, 429, 430, 431, 432, 
433, 434, 435, 436, 437, 438, 439, 440, 
441, 442, 443, 444, 445, 446, 447, 448, 
449, 450, 451, 452, 453, 454, 455, 456, 
457, 458, 459, 460, 461, 462, 463, 464, 
465, 466, 467, 468, 469, 470, 471, 472, 
473, 474, 475, 476, 477, 478, 479, 480, 
481, 482, 483, 484, 485, 486, 487, 488, 
489, 490, 491, 492, 493, 494, 495, 496, 
497, 498, 499, 500, 501, 502, 503, 504, 
505, 506, 507, 508, 509, 510, 511, 512, 
513, 514, 515, 516, 517, 518, 519, 520, 
521, 522, 523, 524, 525, 526, 527, 528, 
529, 530, 531, 532, 533, 534, 535, 536, 
537, 538, 539, 540, 541, 542, 543, 544, 
545, 546, 547, 548, 549, 550, 551, 552, 
** ... 74 like lines cut
*Shell Section, ELSET=Upper_Skin, MATERIAL=user-chosen_material
0.003
*End Part
*Part, NAME=lower_Skin
*Node
705, -0.9343917996048775, 7.961111111111114, -0.10634090318991947
388, -4.355782456992618, 0.1979166666666665, -0.23352801679423082
299, 0.5284305142239881, 9.472222222222218, -0.04149322871182044
66, -1.3546947419557043, 2.9687499999999996, -0.09663489159284026
554, -2.9671452774759723, 3.5625000000000004, -0.1615822542534058
597, -1.7706694417205628, 4.9388888888889015, -0.10870071215046001
62, -1.4654428107675166, 2.1770833333333335, -0.10453492050141619
481, -3.295103164542416, 1.78125, -0.1826501031053281
239, 0.39771514611574155, 9.09444444444445, -0.06288255653875832
74, -1.1331986043320803, 4.552083333333331, -0.0808348337756884
279, 1.8355841953064818, 13.25, -0.027599950442441252
152, 0.5313898690018581, 12.805384615384614, -0.09731981245368224
160, -0.10123208881866264, 11.340769230769231, -0.10796659815032308
579, -1.354366558457539, 4.354166666666664, -0.09089734416619312
500, -1.917007724752752, 2.3749999999999996, -0.12259264399793848
343, 0.6104676137294223, 12.988461538461536, -0.07598896424160213
428, -2.2492519311881884, 0.59375, -0.14383966099948461
164, -0.4175430677289229, 10.608461538461537, -0.11328999099864351
786, 2.505003622742135, 15.705555555555552, -0.04610295301554578
622, 0.47581315783678035, 12.116666666666667, -0.09221465612871406
** ... 822 like lines cut
*Element, TYPE=S4R
1075, 9, 12, 324, 132
1076, 132, 324, 325, 133
1077, 133, 325, 326, 134
1078, 134, 326, 327, 135
1079, 135, 327, 328, 136
1080, 136, 328, 329, 137
1081, 137, 329, 330, 138
1082, 138, 330, 331, 139
1083, 139, 331, 332, 140
1084, 140, 332, 333, 141
1085, 141, 333, 334, 142
1086, 142, 334, 335, 143
1087, 143, 335, 336, 144
1088, 144, 336, 337, 145
1089, 145, 337, 338, 146
1090, 146, 338, 339, 147
1091, 147, 339, 340, 148
1092, 148, 340, 341, 149
1093, 149, 341, 342, 150
1094, 150, 342, 343, 151
** ... 713 like lines cut
*Element, TYPE=S3R
691, 83, 82, 598
693, 81, 80, 597
695, 79, 78, 596
697, 77, 76, 595
699, 75, 2, 195
700, 195, 194, 595
731, 164, 163, 630
404, 27, 26, 400
418, 13, 1, 38
419, 38, 39, 388
421, 40, 41, 418
424, 43, 44, 416
428, 47, 48, 413
431, 50, 51, 411
*ElSet, ELSET=lower_Skin
1075, 1076, 1077, 1078, 1079, 1080, 1081, 1082, 
1083, 1084, 1085, 1086, 1087, 1088, 1089, 1090, 
1091, 1092, 1093, 1094, 1095, 1096, 1097, 1098, 
1099, 1100, 1101, 1102, 1103, 1104, 1105, 1106, 
1107, 1108, 1109, 1110, 1111, 1112, 1113, 1114, 
1115, 1116, 1117, 1118, 1119, 1120, 1121, 1122, 
1123, 1124, 1125, 1126, 1127, 1128, 1129, 1130, 
1131, 1132, 1133, 1134, 1135, 1136, 1137, 1138, 
1139, 690, 691, 692, 693, 694, 695, 696, 
697, 698, 699, 700, 701, 702, 703, 704, 
705, 706, 707, 708, 709, 710, 711, 712, 
713, 714, 715, 716, 717, 718, 719, 720, 
721, 722, 723, 724, 725, 726, 727, 728, 
729, 730, 731, 732, 733, 734, 735, 736, 
737, 738, 739, 740, 741, 742, 743, 744, 
745, 746, 747, 748, 749, 750, 751, 752, 
753, 754, 755, 756, 757, 758, 759, 760, 
761, 762, 763, 764, 765, 766, 767, 768, 
769, 770, 771, 772, 773, 774, 775, 776, 
777, 778, 779, 780, 781, 782, 783, 784, 
** ... 74 like lines cut
*Shell Section, ELSET=lower_Skin, MATERIAL=user-chosen_material
0.003
*End Part
*Part, NAME=front_spar
*Node
75, -1.8409424728250947, 7.313076923076923, 0.23555569243611824
37, -4.515542026808962, 0.5480769230769232, -0.23875928466752389
223, -3.493252160853774, 3.2884615384615374, 0.14977318639660553
15, -4.106626080426887, 1.6442307692307692, 0.37267631679873997
87, -0.8920095360943141, 9.509999999999998, 0.20814588245114926
84, -1.129242770277009, 8.96076923076923, 0.2149983349473915
83, -1.2083205150045742, 8.777692307692305, 0.21728248577947226
147, -1.2083205150045737, 8.777692307692307, -0.1265984731194446
155, -0.5756985571840529, 10.24230769230769, -0.11595168742280373
218, -3.1524888722020443, 4.201923076923075, 0.1351629603956626
179, 1.3221673162775027, 14.63615384615383, -0.08401133033288127
118, 1.5594005504601973, 15.1853846153846, 0.13733720665664617
197, -3.356946845393082, 3.653846153846152, -0.016784734226965366
29, -3.1524888722020443, 4.201923076923075, 0.2860883651523355
148, -1.1292427702770085, 8.96076923076923, -0.12526762490736448
32, -4.720000000000001, 0.0, 0.2588625000000001
85, -1.0501650255494437, 9.143846153846154, 0.21271418411531073
213, -4.447389369078617, 0.7307692307692308, -0.02223694684539302
219, -3.2206415299323905, 4.019230769230767, 0.13808500559585118
120, 1.7175560399153267, 15.551538461538444, 0.1327689049924847
** ... 219 like lines cut
*Element, TYPE=S4R
191, 1, 32, 191, 7
193, 33, 34, 190, 191
194, 34, 3, 35, 190
195, 4, 61, 192, 59
196, 59, 192, 193, 58
197, 58, 193, 194, 57
198, 57, 194, 195, 56
199, 56, 195, 196, 55
200, 55, 196, 197, 54
201, 54, 197, 198, 53
202, 53, 198, 199, 52
203, 52, 199, 200, 51
204, 51, 200, 201, 50
205, 50, 201, 202, 49
206, 49, 202, 203, 48
207, 48, 203, 204, 47
208, 47, 204, 205, 46
209, 46, 205, 206, 45
210, 45, 206, 207, 44
211, 44, 207, 208, 43
** ... 123 like lines cut
*Element, TYPE=S3R
192, 32, 33, 191
270, 2, 60, 62
272, 61, 4, 126
*ElSet, ELSET=front_spar
191, 192, 193, 194, 195, 196, 197, 198, 
199, 200, 201, 202, 203, 204, 205, 206, 
207, 208, 209, 210, 211, 212, 213, 214, 
215, 216, 217, 218, 219, 220, 221, 222, 
223, 224, 225, 226, 227, 228, 229, 230, 
231, 232, 233, 234, 235, 236, 237, 238, 
239, 240, 241, 242, 243, 244, 245, 246, 
247, 248, 249, 250, 251, 252, 253, 254, 
255, 256, 257, 258, 259, 260, 261, 262, 
263, 264, 265, 266, 267, 268, 269, 270, 
271, 272, 273, 274, 275, 276, 277, 278, 
279, 280, 281, 282, 283, 284, 285, 286, 
287, 288, 289, 290, 291, 292, 293, 294, 
295, 296, 297, 298, 299, 300, 301, 302, 
303, 304, 305, 306, 307, 308, 309, 310, 
311, 312, 313, 314, 315, 316, 317, 318, 
319, 320, 321, 322, 323, 324, 325, 326, 
327, 328, 329, 330, 331, 332, 333, 334, 
335, 336
*Shell Section, ELSET=front_spar, MATERIAL=user-chosen_material
0.05
*End Part
*Part, NAME=rear_spar
*Node
86, 0.9205766185487367, 10.605555555555556, 0.13875923845636196
80, 0.5284305142239886, 9.472222222222221, 0.14884809566692983
50, -1.2439466731438924, 3.7604166666666656, -0.08873486268426431
42, -1.4654428107675166, 2.1770833333333335, -0.10453492050141619
162, 1.8355841953064786, 13.249999999999991, -0.04759995044244128
104, 2.097014931522976, 14.005555555555544, 0.10849266682465847
7, -1.742312982797047, 0.1979166666666665, 0.30083937502962343
39, -1.5485038623763758, 1.583333333333333, -0.11045994218284814
135, 0.07092672584511639, 8.149999999999999, -0.06635587610610312
63, -0.5826501146961299, 6.261111111111111, 0.17743319109687214
54, -1.1331986043320803, 4.552083333333331, -0.08083483377568837
23, -1.2993207075497986, 3.3645833333333326, 0.22434937550359857
154, 1.3127227228734832, 11.738888888888885, -0.05315726175019292
64, -0.5172924306420055, 6.449999999999999, 0.17575171489511082
112, 2.6198764039559714, 15.516666666666648, 0.09504085721056801
118, -1.0401539030750027, 4.938888888888888, -0.0781651626350754
155, 1.3780804069276078, 11.927777777777772, -0.05246259783672397
173, 2.554518719901847, 15.32777777777776, -0.03995864739428276
3, -1.77, 0.0, -0.12626000000000004
176, 2.75059177206422, 15.894444444444424, -0.03787465565387589
** ... 182 like lines cut
*Element, TYPE=S4R
181, 1, 30, 180, 7
183, 31, 3, 32, 180
184, 4, 55, 181, 54
185, 54, 181, 182, 53
186, 53, 182, 183, 52
187, 52, 183, 184, 51
188, 51, 184, 185, 50
189, 50, 185, 186, 49
190, 49, 186, 187, 48
191, 48, 187, 188, 47
192, 47, 188, 189, 46
193, 46, 189, 190, 45
194, 45, 190, 191, 44
195, 44, 191, 192, 43
196, 43, 192, 193, 42
197, 42, 193, 194, 41
198, 41, 194, 195, 40
199, 40, 195, 196, 39
200, 39, 196, 197, 38
201, 38, 197, 198, 37
** ... 91 like lines cut
*Element, TYPE=S3R
182, 30, 31, 180
230, 2, 55, 56
*ElSet, ELSET=rear_spar
181, 182, 183, 184, 185, 186, 187, 188, 
189, 190, 191, 192, 193, 194, 195, 196, 
197, 198, 199, 200, 201, 202, 203, 204, 
205, 206, 207, 208, 209, 210, 211, 212, 
213, 214, 215, 216, 217, 218, 219, 220, 
221, 222, 223, 224, 225, 226, 227, 228, 
229, 230, 231, 232, 233, 234, 235, 236, 
237, 238, 239, 240, 241, 242, 243, 244, 
245, 246, 247, 248, 249, 250, 251, 252, 
253, 254, 255, 256, 257, 258, 259, 260, 
261, 262, 263, 264, 265, 266, 267, 268, 
269, 270, 271, 272, 273, 274, 275, 276, 
277, 278, 279, 280, 281, 282, 283, 284, 
285, 286, 287, 288, 289, 290, 291, 292, 
293
*Shell Section, ELSET=rear_spar, MATERIAL=user-chosen_material
0.05
*End Part
*Part, NAME=Upper_Skin_centre_section
*Node
220, -2.753333333333334, -0.19230769230769218, 0.34652666666666665
21, -3.7366666666666672, 0.0, 0.38743333333333335
145, -3.7366666666666672, -1.1538461538461537, 0.3874333333333333
38, -1.77, -1.5384615384615385, 0.30562
35, -1.77, -0.9615384615384615, 0.30562
10, -4.720000000000001, -1.153846153846154, 0.42834
207, -2.5566666666666666, -0.38461538461538464, 0.33834533333333333
121, -2.95, -1.5384615384615385, 0.354708
72, -4.326666666666667, -2.115384615384615, 0.4119773333333333
12, -4.720000000000001, -1.5384615384615385, 0.42834
79, -2.95, -2.115384615384615, 0.354708
155, -4.523333333333334, -0.9615384615384615, 0.4201586666666667
213, -4.130000000000001, -0.19230769230769218, 0.40379600000000004
215, -3.7366666666666672, -0.19230769230769218, 0.38743333333333335
29, -2.163333333333334, 0.0, 0.32198266666666664
146, -3.5400000000000005, -1.153846153846154, 0.379252
98, -1.9666666666666688, -1.923076923076923, 0.31380133333333343
134, -3.1466666666666674, -1.3461538461538463, 0.36288933333333334
16, -4.720000000000001, -2.3076923076923075, 0.42834
15, -4.720000000000001, -2.115384615384615, 0.42834
** ... 204 like lines cut
*Element, TYPE=S4R
57, 2, 16, 57, 43
58, 43, 57, 58, 44
59, 44, 58, 59, 45
60, 45, 59, 60, 46
61, 46, 60, 61, 47
62, 47, 61, 62, 48
63, 48, 62, 63, 49
64, 49, 63, 64, 50
65, 50, 64, 65, 51
66, 51, 65, 66, 52
67, 52, 66, 67, 53
68, 53, 67, 68, 54
69, 54, 68, 69, 55
70, 55, 69, 70, 56
71, 56, 70, 42, 4
72, 16, 15, 71, 57
73, 57, 71, 72, 58
74, 58, 72, 73, 59
75, 59, 73, 74, 60
76, 60, 74, 75, 61
** ... 175 like lines cut
*ElSet, ELSET=Upper_Skin_centre_section
57, 58, 59, 60, 61, 62, 63, 64, 
65, 66, 67, 68, 69, 70, 71, 72, 
73, 74, 75, 76, 77, 78, 79, 80, 
81, 82, 83, 84, 85, 86, 87, 88, 
89, 90, 91, 92, 93, 94, 95, 96, 
97, 98, 99, 100, 101, 102, 103, 104, 
105, 106, 107, 108, 109, 110, 111, 112, 
113, 114, 115, 116, 117, 118, 119, 120, 
121, 122, 123, 124, 125, 126, 127, 128, 
129, 130, 131, 132, 133, 134, 135, 136, 
137, 138, 139, 140, 141, 142, 143, 144, 
145, 146, 147, 148, 149, 150, 151, 152, 
153, 154, 155, 156, 157, 158, 159, 160, 
161, 162, 163, 164, 165, 166, 167, 168, 
169, 170, 171, 172, 173, 174, 175, 176, 
177, 178, 179, 180, 181, 182, 183, 184, 
185, 186, 187, 188, 189, 190, 191, 192, 
193, 194, 195, 196, 197, 198, 199, 200, 
201, 202, 203, 204, 205, 206, 207, 208, 
209, 210, 211, 212, 213, 214, 215, 216, 
** ... 5 like lines cut
*Shell Section, ELSET=Upper_Skin_centre_section, MATERIAL=user-chosen_material
0.003
*End Part
*Part, NAME=Lower_Skin_centre_section
*Node
173, -3.7366666666666672, -0.7692307692307693, -0.20846666666666663
122, -2.753333333333333, -1.5384615384615385, -0.1673633333333333
171, -4.130000000000001, -0.7692307692307693, -0.224908
120, -3.1466666666666665, -1.5384615384615385, -0.18380466666666667
13, -4.720000000000001, -1.7307692307692308, -0.24957000000000001
127, -4.523333333333334, -1.3461538461538463, -0.2413493333333333
43, -4.523333333333334, -2.5, -0.24134933333333333
63, -3.3433333333333337, -2.3076923076923075, -0.19202533333333333
8, -4.720000000000001, -0.7692307692307693, -0.24957000000000001
197, -4.523333333333334, -0.38461538461538464, -0.24134933333333333
84, -1.9666666666666677, -2.1153846153846154, -0.13448066666666672
91, -3.3433333333333337, -1.923076923076923, -0.19202533333333333
153, -2.163333333333333, -1.153846153846154, -0.14270133333333335
203, -3.3433333333333337, -0.38461538461538464, -0.19202533333333333
135, -2.95, -1.3461538461538463, -0.17558400000000002
112, -1.9666666666666672, -1.7307692307692308, -0.1344806666666667
31, -1.77, -0.19230769230769218, -0.12626
3, -1.77, 0.0, -0.12626
22, -3.5400000000000005, 0.0, -0.20024599999999998
133, -3.3433333333333337, -1.3461538461538463, -0.19202533333333333
** ... 204 like lines cut
*Element, TYPE=S4R
57, 2, 16, 57, 43
58, 43, 57, 58, 44
59, 44, 58, 59, 45
60, 45, 59, 60, 46
61, 46, 60, 61, 47
62, 47, 61, 62, 48
63, 48, 62, 63, 49
64, 49, 63, 64, 50
65, 50, 64, 65, 51
66, 51, 65, 66, 52
67, 52, 66, 67, 53
68, 53, 67, 68, 54
69, 54, 68, 69, 55
70, 55, 69, 70, 56
71, 56, 70, 42, 4
72, 16, 15, 71, 57
73, 57, 71, 72, 58
74, 58, 72, 73, 59
75, 59, 73, 74, 60
76, 60, 74, 75, 61
** ... 175 like lines cut
*ElSet, ELSET=Lower_Skin_centre_section
57, 58, 59, 60, 61, 62, 63, 64, 
65, 66, 67, 68, 69, 70, 71, 72, 
73, 74, 75, 76, 77, 78, 79, 80, 
81, 82, 83, 84, 85, 86, 87, 88, 
89, 90, 91, 92, 93, 94, 95, 96, 
97, 98, 99, 100, 101, 102, 103, 104, 
105, 106, 107, 108, 109, 110, 111, 112, 
113, 114, 115, 116, 117, 118, 119, 120, 
121, 122, 123, 124, 125, 126, 127, 128, 
129, 130, 131, 132, 133, 134, 135, 136, 
137, 138, 139, 140, 141, 142, 143, 144, 
145, 146, 147, 148, 149, 150, 151, 152, 
153, 154, 155, 156, 157, 158, 159, 160, 
161, 162, 163, 164, 165, 166, 167, 168, 
169, 170, 171, 172, 173, 174, 175, 176, 
177, 178, 179, 180, 181, 182, 183, 184, 
185, 186, 187, 188, 189, 190, 191, 192, 
193, 194, 195, 196, 197, 198, 199, 200, 
201, 202, 203, 204, 205, 206, 207, 208, 
209, 210, 211, 212, 213, 214, 215, 216, 
** ... 5 like lines cut
*Shell Section, ELSET=Lower_Skin_centre_section, MATERIAL=user-chosen_material
0.003
*End Part
*Part, NAME=Front_spar_centre_section
*Node
43, -4.720000000000001, -1.923076923076923, -0.08009250000000007
21, -4.720000000000001, -0.38461538461538464, -0.24957000000000001
70, -4.720000000000001, -0.19230769230769218, -0.08009250000000007
58, -4.720000000000001, -0.9615384615384617, -0.08009250000000007
4, -4.720000000000001, -2.5, -0.24957000000000001
36, -4.720000000000001, -2.3076923076923075, 0.08938499999999999
39, -4.720000000000001, -2.115384615384615, 0.08938499999999999
10, -4.720000000000001, -1.153846153846154, 0.42834
64, -4.720000000000001, -0.5769230769230771, -0.08009250000000007
28, -4.720000000000001, -1.7307692307692308, -0.24957000000000001
67, -4.720000000000001, -0.38461538461538464, -0.08009250000000007
47, -4.720000000000001, -1.5384615384615385, 0.2588625000000001
56, -4.720000000000001, -0.9615384615384615, 0.2588625000000001
51, -4.720000000000001, -1.3461538461538463, 0.08938499999999999
34, -4.720000000000001, -2.5, -0.08009250000000007
69, -4.720000000000001, -0.19230769230769218, 0.08938499999999985
9, -4.720000000000001, -0.9615384615384615, 0.42834
17, -4.720000000000001, 0.0, 0.2588625000000001
42, -4.720000000000001, -1.923076923076923, 0.08938499999999999
12, -4.720000000000001, -1.5384615384615385, 0.42834
** ... 50 like lines cut
*Element, TYPE=S4R
35, 2, 16, 35, 32
36, 32, 35, 36, 33
37, 33, 36, 37, 34
38, 34, 37, 31, 4
39, 16, 15, 38, 35
40, 35, 38, 39, 36
41, 36, 39, 40, 37
42, 37, 40, 30, 31
43, 15, 14, 41, 38
44, 38, 41, 42, 39
45, 39, 42, 43, 40
46, 40, 43, 29, 30
47, 14, 13, 44, 41
48, 41, 44, 45, 42
49, 42, 45, 46, 43
50, 43, 46, 28, 29
51, 13, 12, 47, 44
52, 44, 47, 48, 45
53, 45, 48, 49, 46
54, 46, 49, 27, 28
** ... 32 like lines cut
*ElSet, ELSET=Front_spar_centre_section
35, 36, 37, 38, 39, 40, 41, 42, 
43, 44, 45, 46, 47, 48, 49, 50, 
51, 52, 53, 54, 55, 56, 57, 58, 
59, 60, 61, 62, 63, 64, 65, 66, 
67, 68, 69, 70, 71, 72, 73, 74, 
75, 76, 77, 78, 79, 80, 81, 82, 
83, 84, 85, 86
*Shell Section, ELSET=Front_spar_centre_section, MATERIAL=user-chosen_material
0.01
*End Part
*Part, NAME=Rear_spar_centre_section
*Node
45, -1.77, -1.1538461538461537, 0.16166000000000003
50, -1.77, -0.7692307692307693, 0.017699999999999994
12, -1.77, -1.5384615384615385, 0.30562
9, -1.77, -0.9615384615384615, 0.30562
33, -1.77, -2.3076923076923075, 0.16166000000000003
10, -1.77, -1.153846153846154, 0.30562
55, -1.77, -0.19230769230769218, 0.16166000000000003
17, -1.77, 0.0, 0.16166000000000003
43, -1.77, -1.3461538461538463, 0.16166000000000003
53, -1.77, -0.38461538461538464, 0.16166000000000003
29, -1.77, -2.115384615384615, -0.12626000000000004
31, -1.77, -2.5, 0.16166000000000003
51, -1.77, -0.5769230769230771, 0.16166000000000003
15, -1.77, -2.115384615384615, 0.30562
48, -1.77, -0.9615384615384615, 0.017699999999999994
39, -1.77, -1.7307692307692308, 0.16166000000000003
30, -1.77, -2.3076923076923075, -0.12626000000000004
46, -1.77, -1.153846153846154, 0.017699999999999994
19, -1.77, -0.19230769230769218, -0.12626000000000004
3, -1.77, 0.0, -0.12626000000000004
** ... 36 like lines cut
*Element, TYPE=S4R
33, 2, 16, 33, 31
34, 31, 33, 34, 32
35, 32, 34, 30, 4
36, 16, 15, 35, 33
37, 33, 35, 36, 34
38, 34, 36, 29, 30
39, 15, 14, 37, 35
40, 35, 37, 38, 36
41, 36, 38, 28, 29
42, 14, 13, 39, 37
43, 37, 39, 40, 38
44, 38, 40, 27, 28
45, 13, 12, 41, 39
46, 39, 41, 42, 40
47, 40, 42, 26, 27
48, 12, 11, 43, 41
49, 41, 43, 44, 42
50, 42, 44, 25, 26
51, 11, 10, 45, 43
52, 43, 45, 46, 44
** ... 19 like lines cut
*ElSet, ELSET=Rear_spar_centre_section
33, 34, 35, 36, 37, 38, 39, 40, 
41, 42, 43, 44, 45, 46, 47, 48, 
49, 50, 51, 52, 53, 54, 55, 56, 
57, 58, 59, 60, 61, 62, 63, 64, 
65, 66, 67, 68, 69, 70, 71
*Shell Section, ELSET=Rear_spar_centre_section, MATERIAL=user-chosen_material
0.01
*End Part
*Part, NAME=Ribs_centre_section
*Node
83, -3.9333333333333336, -0.5, -0.21668733333333334
11, -1.77, -1.0, -0.12626
201, -1.9666666666666666, 0.0, 0.014946666666666678
19, -1.77, -2.0, -0.12626
281, -3.736666666666667, -1.5, -0.009833333333333352
192, -2.753333333333334, 0.0, 0.17523000000000008
230, -2.1633333333333336, -0.5, 0.167088
33, -2.163333333333334, 0.0, 0.32198266666666664
210, -3.7366666666666672, 0.0, -0.009833333333333402
44, -3.7366666666666672, 0.0, -0.20846666666666663
109, -2.5566666666666666, -1.0, -0.15914266666666665
175, -2.5566666666666666, -2.0, -0.15914266666666665
108, -2.3599999999999994, -1.0, -0.150922
290, -2.9500000000000006, -1.5, 0.177944
65, -4.13, -0.5, 0.40379599999999993
174, -2.3599999999999994, -2.0, -0.150922
255, -4.13, -1.0, -0.015340000000000057
274, -2.3599999999999994, -1.5, 0.009440000000000006
151, -4.326666666666666, -1.5, -0.23312866666666665
67, -4.523333333333333, -0.5, 0.4201586666666666
** ... 305 like lines cut
*Element, TYPE=S4R
232, 6, 72, 215, 67
233, 72, 71, 214, 215
235, 70, 8, 86, 214
236, 7, 68, 216, 73
237, 73, 216, 217, 74
238, 74, 217, 218, 75
239, 75, 218, 219, 76
240, 76, 219, 220, 77
241, 77, 220, 221, 78
242, 78, 221, 222, 79
243, 79, 222, 223, 80
244, 80, 223, 224, 81
245, 81, 224, 225, 82
246, 82, 225, 226, 83
247, 83, 226, 227, 84
248, 84, 227, 228, 85
249, 85, 228, 214, 86
250, 68, 69, 229, 216
251, 216, 229, 230, 217
252, 217, 230, 231, 218
** ... 205 like lines cut
*Element, TYPE=S3R
234, 71, 70, 214
280, 104, 103, 242
326, 137, 136, 270
187, 37, 36, 187
372, 170, 169, 298
*ElSet, ELSET=Ribs_centre_section
232, 233, 234, 235, 236, 237, 238, 239, 
240, 241, 242, 243, 244, 245, 246, 247, 
248, 249, 250, 251, 252, 253, 254, 255, 
256, 257, 258, 259, 260, 261, 262, 263, 
264, 265, 266, 267, 268, 269, 270, 271, 
272, 273, 274, 275, 276, 277, 278, 279, 
280, 281, 282, 283, 284, 285, 286, 287, 
288, 289, 290, 291, 292, 293, 294, 295, 
296, 297, 298, 299, 300, 301, 302, 303, 
304, 305, 306, 307, 308, 309, 310, 311, 
312, 313, 314, 315, 316, 317, 318, 319, 
320, 321, 322, 323, 324, 325, 326, 327, 
328, 329, 330, 331, 332, 333, 334, 335, 
336, 337, 338, 339, 340, 341, 342, 343, 
344, 345, 346, 347, 348, 349, 350, 351, 
352, 353, 354, 355, 356, 357, 358, 359, 
360, 361, 362, 363, 364, 365, 366, 367, 
368, 369, 186, 187, 188, 189, 190, 191, 
192, 193, 194, 195, 196, 197, 198, 199, 
200, 201, 202, 203, 204, 205, 206, 207, 
** ... 9 like lines cut
*Shell Section, ELSET=Ribs_centre_section, MATERIAL=user-chosen_material
0.005
*End Part
** 
** ASSEMBLY
** 
*Assembly, NAME=Assembly
*Instance, NAME=Upper_Skin-instance, PART=Upper_Skin
*End Instance
*Instance, NAME=lower_Skin-instance, PART=lower_Skin
*End Instance
*Instance, NAME=front_spar-instance, PART=front_spar
*End Instance
*Instance, NAME=rear_spar-instance, PART=rear_spar
*End Instance
*Instance, NAME=Upper_Skin_centre_section-instance, PART=Upper_Skin_centre_section
*End Instance
*Instance, NAME=Lower_Skin_centre_section-instance, PART=Lower_Skin_centre_section
*End Instance
*Instance, NAME=Front_spar_centre_section-instance, PART=Front_spar_centre_section
*End Instance
*Instance, NAME=Rear_spar_centre_section-instance, PART=Rear_spar_centre_section
*End Instance
*Instance, NAME=Ribs_centre_section-instance, PART=Ribs_centre_section
*End Instance
*ElSet, ELSET=None-SET, INSTANCE=Upper_Skin-instance
640, 641, 642, 643, 644, 645, 646, 647, 
648, 649, 650, 651, 652, 653, 654, 655, 
656, 657, 658, 659, 660, 661, 662, 663
*ElSet, ELSET=None-SET-1, INSTANCE=Upper_Skin-instance
664, 665, 666, 667, 668, 669, 670, 671, 
672, 673, 674, 675, 676, 677, 678, 679, 
680, 681, 682, 683, 684, 685, 686, 687, 
688, 689
*ElSet, ELSET=None-SET-2, INSTANCE=Upper_Skin-instance
1012, 1013, 1014, 1015, 1016, 1017, 1018, 1019, 
1020, 1021, 1022, 1023, 1024, 1025, 1026, 1027, 
1028, 1029, 1030, 1031, 1032, 1033, 1034, 1035, 
1036, 1037, 1038, 1039, 1040, 1041, 1042, 1043, 
1044, 1045, 1046, 1047, 1048, 1049, 1050, 1051, 
1052, 1053, 1054, 1055, 1056, 1057, 1058, 1059, 
1060, 1061, 1062, 1063, 1064, 1065, 1066, 1067, 
1068, 1069, 1070, 1071, 1072, 1073, 1074
*ElSet, ELSET=None-SET-3, INSTANCE=Upper_Skin-instance
1075, 1076, 1077, 1078, 1079, 1080, 1081, 1082, 
1083, 1084, 1085, 1086, 1087, 1088, 1089, 1090, 
1091, 1092, 1093, 1094, 1095, 1096, 1097, 1098, 
1099, 1100, 1101, 1102, 1103, 1104, 1105, 1106, 
1107, 1108, 1109, 1110, 1111, 1112, 1113, 1114, 
1115, 1116, 1117, 1118, 1119, 1120, 1121, 1122, 
1123, 1124, 1125, 1126, 1127, 1128, 1129, 1130, 
1131, 1132, 1133, 1134, 1135, 1136, 1137, 1138, 
1139
*ElSet, ELSET=None-SET-4, INSTANCE=lower_Skin-instance
640, 641, 642, 643, 644, 645, 646, 647, 
648, 649, 650, 651, 652, 653, 654, 655, 
656, 657, 658, 659, 660, 661, 662, 663
*ElSet, ELSET=None-SET-5, INSTANCE=lower_Skin-instance
664, 665, 666, 667, 668, 669, 670, 671, 
672, 673, 674, 675, 676, 677, 678, 679, 
680, 681, 682, 683, 684, 685, 686, 687, 
688, 689
*ElSet, ELSET=None-SET-6, INSTANCE=lower_Skin-instance
1012, 1013, 1014, 1015, 1016, 1017, 1018, 1019, 
1020, 1021, 1022, 1023, 1024, 1025, 1026, 1027, 
1028, 1029, 1030, 1031, 1032, 1033, 1034, 1035, 
1036, 1037, 1038, 1039, 1040, 1041, 1042, 1043, 
1044, 1045, 1046, 1047, 1048, 1049, 1050, 1051, 
1052, 1053, 1054, 1055, 1056, 1057, 1058, 1059, 
1060, 1061, 1062, 1063, 1064, 1065, 1066, 1067, 
1068, 1069, 1070, 1071, 1072, 1073, 1074
*ElSet, ELSET=None-SET-7, INSTANCE=lower_Skin-instance
1075, 1076, 1077, 1078, 1079, 1080, 1081, 1082, 
1083, 1084, 1085, 1086, 1087, 1088, 1089, 1090, 
1091, 1092, 1093, 1094, 1095, 1096, 1097, 1098, 
1099, 1100, 1101, 1102, 1103, 1104, 1105, 1106, 
1107, 1108, 1109, 1110, 1111, 1112, 1113, 1114, 
1115, 1116, 1117, 1118, 1119, 1120, 1121, 1122, 
1123, 1124, 1125, 1126, 1127, 1128, 1129, 1130, 
1131, 1132, 1133, 1134, 1135, 1136, 1137, 1138, 
1139
*ElSet, ELSET=None-ELSET-E4, INSTANCE=rear_spar-instance
181
*ElSet, ELSET=None-ELSET-E2, INSTANCE=rear_spar-instance
229, 228, 227, 226, 225, 224, 223, 222, 
221, 220, 219, 218, 217, 216, 215, 214, 
213, 212, 211, 210, 209, 208, 207
*ElSet, ELSET=None-ELSET-E1, INSTANCE=rear_spar-instance
181, 182, 183
*ElSet, ELSET=None-ELSET-E2-1, INSTANCE=rear_spar-instance
183
*ElSet, ELSET=None-ELSET-E4-1, INSTANCE=rear_spar-instance
206, 205, 204, 203, 202, 201, 200, 199, 
198, 197, 196, 195, 194, 193, 192, 191, 
190, 189, 188, 187, 186, 185, 184
*ElSet, ELSET=None-ELSET-E3, INSTANCE=rear_spar-instance
230
*ElSet, ELSET=None-ELSET-E2-2, INSTANCE=rear_spar-instance
293, 292, 291, 290, 289, 288, 287, 286, 
285, 284, 283, 282, 281, 280, 279, 278, 
277, 276, 275, 274, 273, 272, 271, 270, 
269, 268, 267, 266, 265, 264, 263, 262, 
261, 260, 259, 258, 257, 256, 255, 254, 
253, 252, 251, 250, 249, 248, 247, 246, 
245, 244, 243, 242, 241, 240, 239, 238, 
237, 236, 235, 234, 233, 232
*ElSet, ELSET=None-ELSET-E2-3, INSTANCE=rear_spar-instance
231
*ElSet, ELSET=None-ELSET-E4-2, INSTANCE=rear_spar-instance
293, 292, 291, 290, 289, 288, 287, 286, 
285, 284, 283, 282, 281, 280, 279, 278, 
277, 276, 275, 274, 273, 272, 271, 270, 
269, 268, 267, 266, 265, 264, 263, 262, 
261, 260, 259, 258, 257, 256, 255, 254, 
253, 252, 251, 250, 249, 248, 247, 246, 
245, 244, 243, 242, 241, 240, 239, 238, 
237, 236, 235, 234, 233, 232
*ElSet, ELSET=None-ELSET-E4-3, INSTANCE=front_spar-instance
191
*ElSet, ELSET=None-ELSET-E2-4, INSTANCE=front_spar-instance
269, 268, 267, 266, 265, 264, 263, 262, 
261, 260, 259, 258, 257, 256, 255, 254, 
253, 252, 251, 250, 249, 248, 247, 246, 
245
*ElSet, ELSET=None-ELSET-E1-1, INSTANCE=front_spar-instance
191, 192, 193, 194
*ElSet, ELSET=None-ELSET-E2-5, INSTANCE=front_spar-instance
194
*ElSet, ELSET=None-ELSET-E4-4, INSTANCE=front_spar-instance
219, 218, 217, 216, 215, 214, 213, 212, 
211, 210, 209, 208, 207, 206, 205, 204, 
203, 202, 201, 200, 199, 198, 197, 196, 
195
*ElSet, ELSET=None-ELSET-E3-1, INSTANCE=front_spar-instance
270
*ElSet, ELSET=None-ELSET-E2-6, INSTANCE=front_spar-instance
336, 335, 334, 333, 332, 331, 330, 329, 
328, 327, 326, 325, 324, 323, 322, 321, 
320, 319, 318, 317, 316, 315, 314, 313, 
312, 311, 310, 309, 308, 307, 306, 305, 
304, 303, 302, 301, 300, 299, 298, 297, 
296, 295, 294, 293, 292, 291, 290, 289, 
288, 287, 286, 285, 284, 283, 282, 281, 
280, 279, 278, 277, 276, 275, 274, 273
*ElSet, ELSET=None-ELSET-E2-7, INSTANCE=front_spar-instance
272
*ElSet, ELSET=None-ELSET-E4-5, INSTANCE=front_spar-instance
336, 335, 334, 333, 332, 331, 330, 329, 
328, 327, 326, 325, 324, 323, 322, 321, 
320, 319, 318, 317, 316, 315, 314, 313, 
312, 311, 310, 309, 308, 307, 306, 305, 
304, 303, 302, 301, 300, 299, 298, 297, 
296, 295, 294, 293, 292, 291, 290, 289, 
288, 287, 286, 285, 284, 283, 282, 281, 
280, 279, 278, 277, 276, 275, 274, 273
*ElSet, ELSET=None-ELSET-E1-2, INSTANCE=Front_spar_centre_section-instance
83, 79, 75, 71, 67, 63, 59, 55, 
51, 47, 43, 39, 35
*ElSet, ELSET=None-ELSET-E3-2, INSTANCE=Front_spar_centre_section-instance
86, 82, 78, 74, 70, 66, 62, 58, 
54, 50, 46, 42, 38
*ElSet, ELSET=None-ELSET-E1-3, INSTANCE=Rear_spar_centre_section-instance
69, 66, 63, 60, 57, 54, 51, 48, 
45, 42, 39, 36, 33
*ElSet, ELSET=None-ELSET-E3-3, INSTANCE=Rear_spar_centre_section-instance
71, 68, 65, 62, 59, 56, 53, 50, 
47, 44, 41, 38, 35
*ElSet, ELSET=None-ELSET-E1-4, INSTANCE=Upper_Skin_centre_section-instance
237, 222, 207, 192, 177, 162, 147, 132, 
117, 102, 87, 72, 57
*ElSet, ELSET=None-ELSET-E3-4, INSTANCE=Upper_Skin_centre_section-instance
251, 236, 221, 206, 191, 176, 161, 146, 
131, 116, 101, 86, 71
*ElSet, ELSET=None-ELSET-E1-5, INSTANCE=Lower_Skin_centre_section-instance
237, 222, 207, 192, 177, 162, 147, 132, 
117, 102, 87, 72, 57
*ElSet, ELSET=None-ELSET-E3-5, INSTANCE=Lower_Skin_centre_section-instance
251, 236, 221, 206, 191, 176, 161, 146, 
131, 116, 101, 86, 71
*ElSet, ELSET=None-SET-8, INSTANCE=Upper_Skin_centre_section-instance
57, 58, 59, 60, 61, 62, 63, 64, 
65, 66, 67, 68, 69, 70, 71, 72, 
73, 74, 75, 76, 77, 78, 79, 80, 
81, 82, 83, 84, 85, 86, 87, 88, 
89, 90, 91, 92, 93, 94, 95, 96, 
97, 98, 99, 100, 101, 102, 103, 104, 
105, 106, 107, 108, 109, 110, 111, 112, 
113, 114, 115, 116, 117, 118, 119, 120, 
121, 122, 123, 124, 125, 126, 127, 128, 
129, 130, 131, 132, 133, 134, 135, 136, 
137, 138, 139, 140, 141, 142, 143, 144, 
145, 146, 147, 148, 149, 150, 151, 152, 
153, 154, 155, 156, 157, 158, 159, 160, 
161, 162, 163, 164, 165, 166, 167, 168, 
169, 170, 171, 172, 173, 174, 175, 176, 
177, 178, 179, 180, 181, 182, 183, 184, 
185, 186, 187, 188, 189, 190, 191, 192, 
193, 194, 195, 196, 197, 198, 199, 200, 
201, 202, 203, 204, 205, 206, 207, 208, 
209, 210, 211, 212, 213, 214, 215, 216, 
** ... 5 like lines cut
*ElSet, ELSET=None-SET-9, INSTANCE=Lower_Skin_centre_section-instance
57, 58, 59, 60, 61, 62, 63, 64, 
65, 66, 67, 68, 69, 70, 71, 72, 
73, 74, 75, 76, 77, 78, 79, 80, 
81, 82, 83, 84, 85, 86, 87, 88, 
89, 90, 91, 92, 93, 94, 95, 96, 
97, 98, 99, 100, 101, 102, 103, 104, 
105, 106, 107, 108, 109, 110, 111, 112, 
113, 114, 115, 116, 117, 118, 119, 120, 
121, 122, 123, 124, 125, 126, 127, 128, 
129, 130, 131, 132, 133, 134, 135, 136, 
137, 138, 139, 140, 141, 142, 143, 144, 
145, 146, 147, 148, 149, 150, 151, 152, 
153, 154, 155, 156, 157, 158, 159, 160, 
161, 162, 163, 164, 165, 166, 167, 168, 
169, 170, 171, 172, 173, 174, 175, 176, 
177, 178, 179, 180, 181, 182, 183, 184, 
185, 186, 187, 188, 189, 190, 191, 192, 
193, 194, 195, 196, 197, 198, 199, 200, 
201, 202, 203, 204, 205, 206, 207, 208, 
209, 210, 211, 212, 213, 214, 215, 216, 
** ... 5 like lines cut
*ElSet, ELSET=None-SET-10, INSTANCE=Front_spar_centre_section-instance
35, 36, 37, 38, 39, 40, 41, 42, 
43, 44, 45, 46, 47, 48, 49, 50, 
51, 52, 53, 54, 55, 56, 57, 58, 
59, 60, 61, 62, 63, 64, 65, 66, 
67, 68, 69, 70, 71, 72, 73, 74, 
75, 76, 77, 78, 79, 80, 81, 82, 
83, 84, 85, 86
*ElSet, ELSET=None-SET-11, INSTANCE=Rear_spar_centre_section-instance
33, 34, 35, 36, 37, 38, 39, 40, 
41, 42, 43, 44, 45, 46, 47, 48, 
49, 50, 51, 52, 53, 54, 55, 56, 
57, 58, 59, 60, 61, 62, 63, 64, 
65, 66, 67, 68, 69, 70, 71
*ElSet, ELSET=None-ELSET-E2-8, INSTANCE=Upper_Skin_centre_section-instance
237, 238, 239, 240, 241, 242, 243, 244, 
245, 246, 247, 248, 249, 250, 251
*ElSet, ELSET=None-ELSET-E2-9, INSTANCE=Lower_Skin_centre_section-instance
237, 238, 239, 240, 241, 242, 243, 244, 
245, 246, 247, 248, 249, 250, 251
*ElSet, ELSET=None-ELSET-E2-10, INSTANCE=Rear_spar_centre_section-instance
69, 70, 71
*ElSet, ELSET=None-ELSET-E2-11, INSTANCE=Front_spar_centre_section-instance
83, 84, 85, 86
*ElSet, ELSET=None-SET-12, INSTANCE=Upper_Skin-instance
393, 394, 395, 396, 397, 398, 399, 400, 
401, 402, 403, 404, 405, 406, 407, 408, 
409, 410, 411, 412, 413, 414, 415, 416, 
417, 418, 419, 420, 421, 422, 423, 424, 
425, 426, 427, 428, 429, 430, 431, 432, 
433, 434, 435, 436, 437, 438, 439, 440, 
441, 442, 443, 444, 445, 446, 447, 448, 
449, 450, 451, 452, 453, 454, 455, 456, 
457, 458, 459, 460, 461, 462, 463, 464, 
465, 466, 467, 468, 469, 470, 471, 472, 
473, 474, 475, 476, 477, 478, 479, 480, 
481, 482, 483, 484, 485, 486, 487, 488, 
489, 490, 491, 492, 493, 494, 495, 496, 
497, 498, 499, 500, 501, 502, 503, 504, 
505, 506, 507, 508, 509, 510, 511, 512, 
513, 514, 515, 516, 517, 518, 519, 520, 
521, 522, 523, 524, 525, 526, 527, 528, 
529, 530, 531, 532, 533, 534, 535, 536, 
537, 538, 539, 540, 541, 542, 543, 544, 
545, 546, 547, 548, 549, 550, 551, 552, 
** ... 11 like lines cut
*ElSet, ELSET=None-SET-13, INSTANCE=lower_Skin-instance
393, 394, 395, 396, 397, 398, 399, 400, 
401, 402, 403, 404, 405, 406, 407, 408, 
409, 410, 411, 412, 413, 414, 415, 416, 
417, 418, 419, 420, 421, 422, 423, 424, 
425, 426, 427, 428, 429, 430, 431, 432, 
433, 434, 435, 436, 437, 438, 439, 440, 
441, 442, 443, 444, 445, 446, 447, 448, 
449, 450, 451, 452, 453, 454, 455, 456, 
457, 458, 459, 460, 461, 462, 463, 464, 
465, 466, 467, 468, 469, 470, 471, 472, 
473, 474, 475, 476, 477, 478, 479, 480, 
481, 482, 483, 484, 485, 486, 487, 488, 
489, 490, 491, 492, 493, 494, 495, 496, 
497, 498, 499, 500, 501, 502, 503, 504, 
505, 506, 507, 508, 509, 510, 511, 512, 
513, 514, 515, 516, 517, 518, 519, 520, 
521, 522, 523, 524, 525, 526, 527, 528, 
529, 530, 531, 532, 533, 534, 535, 536, 
537, 538, 539, 540, 541, 542, 543, 544, 
545, 546, 547, 548, 549, 550, 551, 552, 
** ... 11 like lines cut
*ElSet, ELSET=None-ELSET-E2-12, INSTANCE=Ribs_centre_section-instance
189
*ElSet, ELSET=None-ELSET-E4-6, INSTANCE=Ribs_centre_section-instance
203, 202, 201, 200, 199, 198, 197, 196, 
195, 194, 193, 192, 191, 190
*ElSet, ELSET=None-ELSET-E4-7, INSTANCE=Ribs_centre_section-instance
186
*ElSet, ELSET=None-ELSET-E2-13, INSTANCE=Ribs_centre_section-instance
231, 230, 229, 228, 227, 226, 225, 224, 
223, 222, 221, 220, 219, 218
*ElSet, ELSET=None-ELSET-E1-6, INSTANCE=Ribs_centre_section-instance
190, 204, 218
*ElSet, ELSET=None-ELSET-E1-7, INSTANCE=Ribs_centre_section-instance
189, 188, 187, 186
*ElSet, ELSET=None-ELSET-E2-14, INSTANCE=Ribs_centre_section-instance
264, 265, 266, 267, 268, 269, 270, 271, 
272, 273, 274, 275, 276, 277
*ElSet, ELSET=None-ELSET-E4-8, INSTANCE=Ribs_centre_section-instance
232
*ElSet, ELSET=None-ELSET-E4-9, INSTANCE=Ribs_centre_section-instance
236, 237, 238, 239, 240, 241, 242, 243, 
244, 245, 246, 247, 248, 249
*ElSet, ELSET=None-ELSET-E2-15, INSTANCE=Ribs_centre_section-instance
235
*ElSet, ELSET=None-ELSET-E1-8, INSTANCE=Ribs_centre_section-instance
235, 234, 233, 232
*ElSet, ELSET=None-ELSET-E1-9, INSTANCE=Ribs_centre_section-instance
236, 250, 264
*ElSet, ELSET=None-ELSET-E2-16, INSTANCE=Ribs_centre_section-instance
310, 311, 312, 313, 314, 315, 316, 317, 
318, 319, 320, 321, 322, 323
*ElSet, ELSET=None-ELSET-E4-10, INSTANCE=Ribs_centre_section-instance
278
*ElSet, ELSET=None-ELSET-E4-11, INSTANCE=Ribs_centre_section-instance
282, 283, 284, 285, 286, 287, 288, 289, 
290, 291, 292, 293, 294, 295
*ElSet, ELSET=None-ELSET-E2-17, INSTANCE=Ribs_centre_section-instance
281
*ElSet, ELSET=None-ELSET-E1-10, INSTANCE=Ribs_centre_section-instance
281, 280, 279, 278
*ElSet, ELSET=None-ELSET-E1-11, INSTANCE=Ribs_centre_section-instance
282, 296, 310
*ElSet, ELSET=None-ELSET-E2-18, INSTANCE=Ribs_centre_section-instance
356, 357, 358, 359, 360, 361, 362, 363, 
364, 365, 366, 367, 368, 369
*ElSet, ELSET=None-ELSET-E4-12, INSTANCE=Ribs_centre_section-instance
324
*ElSet, ELSET=None-ELSET-E4-13, INSTANCE=Ribs_centre_section-instance
328, 329, 330, 331, 332, 333, 334, 335, 
336, 337, 338, 339, 340, 341
*ElSet, ELSET=None-ELSET-E2-19, INSTANCE=Ribs_centre_section-instance
327
*ElSet, ELSET=None-ELSET-E1-12, INSTANCE=Ribs_centre_section-instance
327, 326, 325, 324
*ElSet, ELSET=None-ELSET-E1-13, INSTANCE=Ribs_centre_section-instance
328, 342, 356
*ElSet, ELSET=None-ELSET-E2-20, INSTANCE=Ribs_centre_section-instance
402, 403, 404, 405, 406, 407, 408, 409, 
410, 411, 412, 413, 414, 415
*ElSet, ELSET=None-ELSET-E4-14, INSTANCE=Ribs_centre_section-instance
370
*ElSet, ELSET=None-ELSET-E4-15, INSTANCE=Ribs_centre_section-instance
374, 375, 376, 377, 378, 379, 380, 381, 
382, 383, 384, 385, 386, 387
*ElSet, ELSET=None-ELSET-E2-21, INSTANCE=Ribs_centre_section-instance
373
*ElSet, ELSET=None-ELSET-E1-14, INSTANCE=Ribs_centre_section-instance
373, 372, 371, 370
*ElSet, ELSET=None-ELSET-E1-15, INSTANCE=Ribs_centre_section-instance
374, 388, 402
*NSet, NSET=set, INSTANCE=Upper_Skin-instance
1, 38, 39, 40, 41, 42, 43, 44, 
45, 46, 47, 48, 49, 50, 51, 3
*NSet, NSET=set-1, INSTANCE=Upper_Skin_centre_section-instance
2, 43, 44, 45, 46, 47, 48, 49, 
50, 51, 52, 53, 54, 55, 56, 4
*NSet, NSET=set-2, INSTANCE=Lower_Skin_centre_section-instance
2, 43, 44, 45, 46, 47, 48, 49, 
50, 51, 52, 53, 54, 55, 56, 4
*NSet, NSET=set-3, INSTANCE=Front_spar_centre_section-instance
2, 32, 33, 34, 4
*NSet, NSET=set-4, INSTANCE=Rear_spar_centre_section-instance
2, 31, 32, 4
*NSet, NSET=loadpoints, INSTANCE=Upper_Skin-instance
38, 1, 39, 40, 41, 42, 43, 44, 
45, 46, 47, 48, 49, 50, 51, 3, 
13, 388, 418, 417, 416, 415, 414, 413, 
412, 411, 52
*NSet, NSET=loadpoints-1, INSTANCE=Upper_Skin-instance
14, 419, 425, 389, 53, 420, 421, 422, 
423, 424, 426
*NSet, NSET=loadpoints-2, INSTANCE=Upper_Skin-instance
15, 390, 54, 427, 428, 429, 430, 431, 
432, 433, 434
*NSet, NSET=loadpoints-3, INSTANCE=Upper_Skin-instance
16, 391, 55, 435, 436, 437, 439, 440, 
441, 442, 438
*NSet, NSET=loadpoints-4, INSTANCE=Upper_Skin-instance
17, 392, 56, 443, 444, 445, 448, 449, 
450, 446, 447
*NSet, NSET=loadpoints-5, INSTANCE=Upper_Skin-instance
18, 393, 57, 451, 452, 453, 454, 455, 
456, 457, 458, 19
*NSet, NSET=loadpoints-6, INSTANCE=Upper_Skin-instance
58, 464, 394, 459, 460, 461, 462, 463, 
465, 466, 20
*NSet, NSET=loadpoints-7, INSTANCE=Upper_Skin-instance
395, 59, 467, 470, 472, 469, 471, 473, 
468, 474, 21
*NSet, NSET=loadpoints-8, INSTANCE=Upper_Skin-instance
396, 60, 475, 476, 477, 478, 479, 480, 
481, 482, 22
*NSet, NSET=loadpoints-9, INSTANCE=Upper_Skin-instance
489, 397, 61, 483, 484, 485, 486, 487, 
488, 490, 23, 398, 491, 493, 494, 496, 
497, 498, 62, 495, 492
*NSet, NSET=loadpoints-10, INSTANCE=Upper_Skin-instance
24, 25, 499, 506, 399, 63, 500, 501, 
502, 503, 504, 505
*NSet, NSET=loadpoints-11, INSTANCE=Upper_Skin-instance
26, 507, 508, 512, 513, 400, 64, 509, 
511, 510, 514
*NSet, NSET=loadpoints-12, INSTANCE=Upper_Skin-instance
27, 65, 516, 519, 520, 401, 517, 521, 
522, 518, 515
*NSet, NSET=loadpoints-13, INSTANCE=Upper_Skin-instance
28, 526, 66, 523, 524, 525, 527, 528, 
402, 529, 530
*NSet, NSET=loadpoints-14, INSTANCE=Upper_Skin-instance
29, 531, 532, 67, 534, 536, 403, 533, 
535, 537, 538
*NSet, NSET=loadpoints-15, INSTANCE=Upper_Skin-instance
30, 540, 539, 68, 541, 543, 544, 542, 
545, 546, 404, 31
*NSet, NSET=loadpoints-16, INSTANCE=Upper_Skin-instance
547, 69, 552, 548, 549, 550, 405, 551, 
553, 554, 32
*NSet, NSET=loadpoints-17, INSTANCE=Upper_Skin-instance
555, 70, 561, 562, 556, 557, 558, 559, 
560, 406, 33
*NSet, NSET=loadpoints-18, INSTANCE=Upper_Skin-instance
71, 563, 564, 566, 567, 565, 569, 570, 
407, 568, 34, 72, 571, 572, 573, 574, 
575, 577, 578, 408, 576
*NSet, NSET=loadpoints-19, INSTANCE=Upper_Skin-instance
35, 409, 73, 579, 580, 581, 582, 583, 
584, 585, 586
*NSet, NSET=loadpoints-20, INSTANCE=Upper_Skin-instance
36, 74, 593, 587, 588, 589, 592, 410, 
590, 594, 591, 37
*NSet, NSET=loadpoints-21, INSTANCE=Upper_Skin-instance
2, 75, 4, 83, 82, 81, 80, 79, 
78, 77, 76
*NSet, NSET=loadpoints-22, INSTANCE=Upper_Skin-instance
132, 595, 659, 658, 657, 196
*NSet, NSET=loadpoints-23, INSTANCE=Upper_Skin-instance
133, 596, 197, 660, 661, 662
*NSet, NSET=loadpoints-24, INSTANCE=Upper_Skin-instance
134, 664, 597, 198, 663, 665
*NSet, NSET=loadpoints-25, INSTANCE=Upper_Skin-instance
135, 598, 199, 666, 667, 668, 136, 599, 
200, 669, 670, 671
*NSet, NSET=loadpoints-26, INSTANCE=Upper_Skin-instance
137, 600, 201, 672, 673, 674
*NSet, NSET=loadpoints-27, INSTANCE=Upper_Skin-instance
138, 675, 676, 601, 202, 677
*NSet, NSET=loadpoints-28, INSTANCE=Upper_Skin-instance
139, 602, 203, 678, 679, 680
*NSet, NSET=loadpoints-29, INSTANCE=Upper_Skin-instance
140, 603, 204, 681, 682, 683
*NSet, NSET=loadpoints-30, INSTANCE=Upper_Skin-instance
141, 604, 205, 684, 686, 685, 142
*NSet, NSET=loadpoints-31, INSTANCE=Upper_Skin-instance
687, 689, 605, 206, 688, 143
*NSet, NSET=loadpoints-32, INSTANCE=Upper_Skin-instance
606, 207, 690, 691, 692, 144, 607, 208, 
694, 695, 693
*NSet, NSET=loadpoints-33, INSTANCE=Upper_Skin-instance
145, 608, 209, 696, 697, 698
*NSet, NSET=loadpoints-34, INSTANCE=Upper_Skin-instance
146, 700, 609, 210, 699, 701
*NSet, NSET=loadpoints-35, INSTANCE=Upper_Skin-instance
147, 610, 211, 702, 703, 704, 148
*NSet, NSET=loadpoints-36, INSTANCE=Upper_Skin-instance
611, 212, 707, 705, 706, 149
*NSet, NSET=loadpoints-37, INSTANCE=Upper_Skin-instance
612, 213, 709, 708, 710, 150
*NSet, NSET=loadpoints-38, INSTANCE=Upper_Skin-instance
711, 613, 214, 712, 713, 151, 614, 215, 
716, 714, 715
*NSet, NSET=loadpoints-39, INSTANCE=Upper_Skin-instance
152, 615, 216, 718, 719, 717
*NSet, NSET=loadpoints-40, INSTANCE=Upper_Skin-instance
153, 720, 616, 217, 721, 722, 154
*NSet, NSET=loadpoints-41, INSTANCE=Upper_Skin-instance
617, 218, 723, 724, 725, 155
*NSet, NSET=loadpoints-42, INSTANCE=Upper_Skin-instance
618, 219, 726, 727, 728, 156
*NSet, NSET=loadpoints-43, INSTANCE=Upper_Skin-instance
619, 220, 729, 730, 731, 157
*NSet, NSET=loadpoints-44, INSTANCE=Upper_Skin-instance
732, 733, 620, 221, 734, 158, 735, 621, 
222, 736, 737
*NSet, NSET=loadpoints-45, INSTANCE=Upper_Skin-instance
159, 622, 223, 740, 738, 739, 160
*NSet, NSET=loadpoints-46, INSTANCE=Upper_Skin-instance
623, 224, 742, 743, 741, 161
*NSet, NSET=loadpoints-47, INSTANCE=Upper_Skin-instance
624, 225, 744, 745, 746, 162
*NSet, NSET=loadpoints-48, INSTANCE=Upper_Skin-instance
625, 749, 747, 226, 748, 163
*NSet, NSET=loadpoints-49, INSTANCE=Upper_Skin-instance
164, 751, 752, 626, 227, 750
*NSet, NSET=loadpoints-50, INSTANCE=Upper_Skin-instance
165, 228, 753, 754, 755, 627, 166, 757, 
756, 758, 229, 628
*NSet, NSET=loadpoints-51, INSTANCE=Upper_Skin-instance
167, 230, 629, 759, 761, 760
*NSet, NSET=loadpoints-52, INSTANCE=Upper_Skin-instance
168, 231, 762, 764, 630, 763
*NSet, NSET=loadpoints-53, INSTANCE=Upper_Skin-instance
169, 232, 765, 631, 766, 767
*NSet, NSET=loadpoints-54, INSTANCE=Upper_Skin-instance
170, 768, 233, 770, 632, 769
*NSet, NSET=loadpoints-55, INSTANCE=Upper_Skin-instance
171, 234, 771, 773, 772, 633, 172
*NSet, NSET=loadpoints-56, INSTANCE=Upper_Skin-instance
235, 774, 775, 634, 776, 173
*NSet, NSET=loadpoints-57, INSTANCE=Upper_Skin-instance
236, 777, 778, 779, 635, 174, 237, 780, 
781, 782, 636
*NSet, NSET=loadpoints-58, INSTANCE=Upper_Skin-instance
175, 238, 783, 784, 785, 637
*NSet, NSET=loadpoints-59, INSTANCE=Upper_Skin-instance
176, 239, 786, 788, 787, 638
*NSet, NSET=loadpoints-60, INSTANCE=Upper_Skin-instance
177, 240, 789, 790, 791, 639, 178
*NSet, NSET=loadpoints-61, INSTANCE=Upper_Skin-instance
241, 792, 793, 640, 794, 179
*NSet, NSET=loadpoints-62, INSTANCE=Upper_Skin-instance
795, 242, 796, 797, 641, 180
*NSet, NSET=loadpoints-63, INSTANCE=Upper_Skin-instance
798, 243, 799, 800, 642, 181, 801, 244, 
802, 803, 643
*NSet, NSET=loadpoints-64, INSTANCE=Upper_Skin-instance
182, 245, 804, 805, 806, 644
*NSet, NSET=loadpoints-65, INSTANCE=Upper_Skin-instance
183, 246, 807, 808, 809, 645, 184
*NSet, NSET=loadpoints-66, INSTANCE=Upper_Skin-instance
247, 811, 810, 812, 646, 185
*NSet, NSET=loadpoints-67, INSTANCE=Upper_Skin-instance
248, 813, 814, 815, 647, 186
*NSet, NSET=loadpoints-68, INSTANCE=Upper_Skin-instance
249, 816, 817, 818, 648, 187
*NSet, NSET=loadpoints-69, INSTANCE=Upper_Skin-instance
250, 820, 819, 821, 649, 188, 251, 822, 
823, 650, 824
*NSet, NSET=loadpoints-70, INSTANCE=Upper_Skin-instance
189, 252, 825, 826, 651, 827, 190
*NSet, NSET=loadpoints-71, INSTANCE=Upper_Skin-instance
253, 828, 829, 652, 830, 191
*NSet, NSET=loadpoints-72, INSTANCE=Upper_Skin-instance
254, 831, 832, 833, 653, 192
*NSet, NSET=loadpoints-73, INSTANCE=Upper_Skin-instance
255, 834, 835, 836, 654, 193
*NSet, NSET=loadpoints-74, INSTANCE=Upper_Skin-instance
256, 837, 838, 655, 839, 194
*NSet, NSET=loadpoints-75, INSTANCE=Upper_Skin-instance
257, 840, 841, 842, 656, 195, 9, 258, 
10, 261, 260, 259
*NSet, NSET=engine_0_mass, INSTANCE=lower_Skin-instance
33, 564, 71, 565, 563, 566, 567, 568, 
569, 407, 570, 34, 571, 574, 72, 578, 
572, 573, 575, 576, 577, 408
*Surface, TYPE=ELEMENT, NAME=surface
None-SET, SPOS
*Surface, TYPE=ELEMENT, NAME=surface-1
None-SET-1, SPOS
*Surface, TYPE=ELEMENT, NAME=surface-2
None-SET-2, SPOS
*Surface, TYPE=ELEMENT, NAME=surface-3
None-SET-3, SPOS
*Surface, TYPE=ELEMENT, NAME=surface-4
None-SET-4, SPOS
*Surface, TYPE=ELEMENT, NAME=surface-5
None-SET-5, SPOS
*Surface, TYPE=ELEMENT, NAME=surface-6
None-SET-6, SPOS
*Surface, TYPE=ELEMENT, NAME=surface-7
None-SET-7, SPOS
*Surface, TYPE=ELEMENT, NAME=surface-8
None-ELSET-E4, E4
None-ELSET-E2, E2
*Surface, TYPE=ELEMENT, NAME=surface-9
None-ELSET-E1, E1
*Surface, TYPE=ELEMENT, NAME=surface-10
None-ELSET-E2-1, E2
None-ELSET-E4-1, E4
*Surface, TYPE=ELEMENT, NAME=surface-11
None-ELSET-E3, E3
None-ELSET-E2-2, E2
*Surface, TYPE=ELEMENT, NAME=surface-12
None-ELSET-E2-3, E2
None-ELSET-E4-2, E4
*Surface, TYPE=ELEMENT, NAME=surface-13
None-ELSET-E4-3, E4
None-ELSET-E2-4, E2
*Surface, TYPE=ELEMENT, NAME=surface-14
None-ELSET-E1-1, E1
*Surface, TYPE=ELEMENT, NAME=surface-15
None-ELSET-E2-5, E2
None-ELSET-E4-4, E4
*Surface, TYPE=ELEMENT, NAME=surface-16
None-ELSET-E3-1, E3
None-ELSET-E2-6, E2
*Surface, TYPE=ELEMENT, NAME=surface-17
None-ELSET-E2-7, E2
None-ELSET-E4-5, E4
*Surface, TYPE=ELEMENT, NAME=surface-18
None-ELSET-E1-2, E1
*Surface, TYPE=ELEMENT, NAME=surface-19
None-ELSET-E3-2, E3
*Surface, TYPE=ELEMENT, NAME=surface-20
None-ELSET-E1-3, E1
*Surface, TYPE=ELEMENT, NAME=surface-21
None-ELSET-E3-3, E3
*Surface, TYPE=ELEMENT, NAME=surface-22
None-ELSET-E1-4, E1
*Surface, TYPE=ELEMENT, NAME=surface-23
None-ELSET-E3-4, E3
*Surface, TYPE=ELEMENT, NAME=surface-24
None-ELSET-E1-5, E1
*Surface, TYPE=ELEMENT, NAME=surface-25
None-ELSET-E3-5, E3
*Surface, TYPE=ELEMENT, NAME=surface-26
None-SET-8, SPOS
*Surface, TYPE=ELEMENT, NAME=surface-27
None-SET-9, SPOS
*Surface, TYPE=ELEMENT, NAME=surface-28
None-SET-10, SPOS
*Surface, TYPE=ELEMENT, NAME=surface-29
None-SET-11, SPOS
*Surface, TYPE=ELEMENT, NAME=surface-30
None-ELSET-E2-8, E2
*Surface, TYPE=ELEMENT, NAME=surface-31
None-ELSET-E2-9, E2
*Surface, TYPE=ELEMENT, NAME=surface-32
None-ELSET-E2-10, E2
*Surface, TYPE=ELEMENT, NAME=surface-33
None-ELSET-E2-11, E2
*Surface, TYPE=ELEMENT, NAME=surface-34
None-SET-12, SPOS
*Surface, TYPE=ELEMENT, NAME=surface-35
None-SET-13, SPOS
*Surface, TYPE=ELEMENT, NAME=surface-36
None-ELSET-E2-12, E2
None-ELSET-E4-6, E4
*Surface, TYPE=ELEMENT, NAME=surface-37
None-ELSET-E4-7, E4
None-ELSET-E2-13, E2
*Surface, TYPE=ELEMENT, NAME=surface-38
None-ELSET-E1-6, E1
*Surface, TYPE=ELEMENT, NAME=surface-39
None-ELSET-E1-7, E1
*Surface, TYPE=ELEMENT, NAME=surface-40
None-ELSET-E2-14, E2
None-ELSET-E4-8, E4
*Surface, TYPE=ELEMENT, NAME=surface-41
None-ELSET-E4-9, E4
None-ELSET-E2-15, E2
*Surface, TYPE=ELEMENT, NAME=surface-42
None-ELSET-E1-8, E1
*Surface, TYPE=ELEMENT, NAME=surface-43
None-ELSET-E1-9, E1
*Surface, TYPE=ELEMENT, NAME=surface-44
None-ELSET-E2-16, E2
None-ELSET-E4-10, E4
*Surface, TYPE=ELEMENT, NAME=surface-45
None-ELSET-E4-11, E4
None-ELSET-E2-17, E2
*Surface, TYPE=ELEMENT, NAME=surface-46
None-ELSET-E1-10, E1
*Surface, TYPE=ELEMENT, NAME=surface-47
None-ELSET-E1-11, E1
*Surface, TYPE=ELEMENT, NAME=surface-48
None-ELSET-E2-18, E2
None-ELSET-E4-12, E4
*Surface, TYPE=ELEMENT, NAME=surface-49
None-ELSET-E4-13, E4
None-ELSET-E2-19, E2
*Surface, TYPE=ELEMENT, NAME=surface-50
None-ELSET-E1-12, E1
*Surface, TYPE=ELEMENT, NAME=surface-51
None-ELSET-E1-13, E1
*Surface, TYPE=ELEMENT, NAME=surface-52
None-ELSET-E2-20, E2
None-ELSET-E4-14, E4
*Surface, TYPE=ELEMENT, NAME=surface-53
None-ELSET-E4-15, E4
None-ELSET-E2-21, E2
*Surface, TYPE=ELEMENT, NAME=surface-54
None-ELSET-E1-14, E1
*Surface, TYPE=ELEMENT, NAME=surface-55
None-ELSET-E1-15, E1
*Tie, NAME=tie, TYPE=Surface to Surface
surface-8, surface
*Tie, NAME=tie-1, TYPE=Surface to Surface
surface-11, surface-2
*Tie, NAME=tie-2, TYPE=Surface to Surface
surface-13, surface-1
*Tie, NAME=tie-3, TYPE=Surface to Surface
surface-16, surface-3
*Tie, NAME=tie-4, TYPE=Surface to Surface
surface-10, surface-4
*Tie, NAME=tie-5, TYPE=Surface to Surface
surface-12, surface-6
*Tie, NAME=tie-6, TYPE=Surface to Surface
surface-15, surface-5
*Tie, NAME=tie-7, TYPE=Surface to Surface
surface-17, surface-7
*Tie, NAME=tie-8, TYPE=Surface to Surface
surface-18, surface-22
*Tie, NAME=tie-9, TYPE=Surface to Surface
surface-19, surface-24
*Tie, NAME=tie-10, TYPE=Surface to Surface
surface-20, surface-23
*Tie, NAME=tie-11, TYPE=Surface to Surface
surface-21, surface-25
*Tie, NAME=tie-12, TYPE=Surface to Surface
surface-30, surface-34
*Tie, NAME=tie-13, TYPE=Surface to Surface
surface-31, surface-35
*End Assembly
** 
** MATERIALS
** 
*Material, NAME=user-chosen_material
*Density
2810
*Elastic
72000000000.0, 0.33
** 
** STEPS
** 
** Name: boundary-condition Type: Displacement/Rotation
*Boundary
set, 1, 1
set, 2, 2
set, 3, 3
set, 4, 4
set, 5, 5
set, 6, 6
** Name: boundary-condition-1 Type: Displacement/Rotation
*Boundary
set-1, 1, 1
set-1, 2, 2
set-1, 3, 3
set-1, 4, 4
set-1, 5, 5
set-1, 6, 6
** Name: boundary-condition-2 Type: Displacement/Rotation
*Boundary
set-2, 1, 1
set-2, 2, 2
set-2, 3, 3
set-2, 4, 4
set-2, 5, 5
set-2, 6, 6
** Name: boundary-condition-3 Type: Displacement/Rotation
*Boundary
set-3, 1, 1
set-3, 2, 2
set-3, 3, 3
set-3, 4, 4
set-3, 5, 5
set-3, 6, 6
** Name: boundary-condition-4 Type: Displacement/Rotation
*Boundary
set-4, 1, 1
set-4, 2, 2
set-4, 3, 3
set-4, 4, 4
set-4, 5, 5
set-4, 6, 6
** 
** STEP: analysis1
** 
*Step, NAME=analysis1, NLGEOM=NO
*Static
0.01, 1.0, 1e-15, 0.1
*CLoad
loadpoints, 3, 3185.0649350649346
*CLoad
loadpoints-1, 3, 3143.1561859193434
*CLoad
loadpoints-2, 3, 3101.2474367737523
*CLoad
loadpoints-3, 3, 3059.3386876281606
*CLoad
loadpoints-4, 3, 3017.4299384825695
*CLoad
loadpoints-5, 3, 2975.5211893369783
*CLoad
loadpoints-6, 3, 2933.612440191387
*CLoad
loadpoints-7, 3, 2891.703691045796
*CLoad
loadpoints-8, 3, 2849.794941900205
*CLoad
loadpoints-9, 3, 2807.886192754613
*CLoad
loadpoints-10, 3, 2765.9774436090224
*CLoad
loadpoints-11, 3, 2724.068694463431
*CLoad
loadpoints-12, 3, 2682.1599453178396
*CLoad
loadpoints-13, 3, 2640.2511961722485
*CLoad
loadpoints-14, 3, 2598.3424470266573
*CLoad
loadpoints-15, 3, 2556.4336978810657
*CLoad
loadpoints-16, 3, 2514.524948735475
*CLoad
loadpoints-17, 3, 2472.6161995898833
*CLoad
loadpoints-18, 3, 2430.707450444292
*CLoad
loadpoints-19, 3, 2388.798701298701
*CLoad
loadpoints-20, 3, 2346.88995215311
*CLoad
loadpoints-21, 3, 2304.981203007518
*CLoad
loadpoints-22, 3, 2263.072453861927
*CLoad
loadpoints-23, 3, 2221.163704716336
*CLoad
loadpoints-24, 3, 2179.2549555707446
*CLoad
loadpoints-25, 3, 2137.3462064251535
*CLoad
loadpoints-26, 3, 2095.4374572795623
*CLoad
loadpoints-27, 3, 2053.528708133971
*CLoad
loadpoints-28, 3, 2011.6199589883797
*CLoad
loadpoints-29, 3, 1969.7112098427885
*CLoad
loadpoints-30, 3, 1927.8024606971971
*CLoad
loadpoints-31, 3, 1885.893711551606
*CLoad
loadpoints-32, 3, 1843.9849624060148
*CLoad
loadpoints-33, 3, 1802.0762132604234
*CLoad
loadpoints-34, 3, 1760.167464114832
*CLoad
loadpoints-35, 3, 1718.258714969241
*CLoad
loadpoints-36, 3, 1676.3499658236497
*CLoad
loadpoints-37, 3, 1634.4412166780587
*CLoad
loadpoints-38, 3, 1592.5324675324673
*CLoad
loadpoints-39, 3, 1550.623718386876
*CLoad
loadpoints-40, 3, 1508.7149692412845
*CLoad
loadpoints-41, 3, 1466.8062200956936
*CLoad
loadpoints-42, 3, 1424.8974709501022
*CLoad
loadpoints-43, 3, 1382.9887218045108
*CLoad
loadpoints-44, 3, 1341.0799726589198
*CLoad
loadpoints-45, 3, 1299.1712235133284
*CLoad
loadpoints-46, 3, 1257.262474367737
*CLoad
loadpoints-47, 3, 1215.353725222146
*CLoad
loadpoints-48, 3, 1173.444976076555
*CLoad
loadpoints-49, 3, 1131.5362269309635
*CLoad
loadpoints-50, 3, 1089.6274777853725
*CLoad
loadpoints-51, 3, 1047.7187286397811
*CLoad
loadpoints-52, 3, 1005.8099794941899
*CLoad
loadpoints-53, 3, 963.9012303485988
*CLoad
loadpoints-54, 3, 921.9924812030074
*CLoad
loadpoints-55, 3, 880.083732057416
*CLoad
loadpoints-56, 3, 838.174982911825
*CLoad
loadpoints-57, 3, 796.2662337662337
*CLoad
loadpoints-58, 3, 754.3574846206423
*CLoad
loadpoints-59, 3, 712.4487354750509
*CLoad
loadpoints-60, 3, 670.5399863294599
*CLoad
loadpoints-61, 3, 628.6312371838685
*CLoad
loadpoints-62, 3, 586.7224880382771
*CLoad
loadpoints-63, 3, 544.8137388926862
*CLoad
loadpoints-64, 3, 502.90498974709476
*CLoad
loadpoints-65, 3, 460.99624060150336
*CLoad
loadpoints-66, 3, 419.08749145591236
*CLoad
loadpoints-67, 3, 377.1787423103213
*CLoad
loadpoints-68, 3, 335.26999316472995
*CLoad
loadpoints-69, 3, 293.3612440191389
*CLoad
loadpoints-70, 3, 251.45249487354755
*CLoad
loadpoints-71, 3, 209.54374572795618
*CLoad
loadpoints-72, 3, 167.6349965823648
*CLoad
loadpoints-73, 3, 125.72624743677378
*CLoad
loadpoints-74, 3, 83.81749829118274
*CLoad
loadpoints-75, 3, 41.908749145591024
*CLoad
engine_0_mass, 3, -9810.0
*Output, NAME=field-output, FIELD, VARIABLE=PRESELECT
*Output, NAME=history-output, HISTORY, VARIABLE=PRESELECT
*End Step
