1

   Abaqus 2023                                  Date 15-Jun-2024   Time 18:29:21
   For use by DELFT UNIVERSITY OF TECHNOLOGY under license from Dassault Systemes or its subsidiary.



                         The Abaqus Software is a product of:

                           Dassault Systemes SIMULIA Corp.
                           1301 Atwood Avenue, Suite 101W
                              Johnston, RI 02919, USA
 


                   The Abaqus Software is available only under license
                   from Dassault Systemes or its subsidiary and may be
                   used or reproduced only in accordance with the terms
                   of such license.
 
                          On machine MatanNeumark 
                          you are authorized to run
                          Abaqus/Standard until 30-Sep-2024

                          Your site id is: 200000000057591 


 
                    For assistance or any other information you may
                    obtain contact information for your local office
                    from the world wide web at:

                      http://www.3ds.com/products/simulia/locations/

 
                * * * * * * * * * * * * * * * * * * * * * * * * * * * * * * 
                *                                                         * 
                *                   *****************                     * 
                *                   *  N O T I C E  *                     * 
                *                   *****************                     * 
                *                                                         * 
                *                                                         * 
                *                       Abaqus 2023                       * 
                *                                                         * 
                *          BUILD ID: 2022_09_28-20.11.55 183150           * 
                *                                                         * 
                *                                                         * 
                *  Please make sure you are using                         * 
                *  release Abaqus 2023 manuals                            * 
                *  plus the notes accompanying this release.              * 
                *                                                         * 
                *                                                         * 
                *                                                         * 
                *                                                         * 
                *                                                         * 
                *   This program may not be used for commercial purposes  * 
                *           without payment of a commercial fee.          * 
                *                                                         * 
                * * * * * * * * * * * * * * * * * * * * * * * * * * * * * * 


 



     PROCESSING PART, INSTANCE, AND ASSEMBLY INFORMATION
   *******************************************************


     END PROCESSING PART, INSTANCE, AND ASSEMBLY INFORMATION
   ***********************************************************




     OPTIONS BEING PROCESSED
   ***************************


  *Heading
  *Node
  *Element, type=S4R
  *Element, type=S3R
  *Element, type=S4R
  *Element, type=S3R
  *Element, type=S4R
  *Element, type=S3R
  *Element, type=S4R
  *Element, type=S3R
  *Element, type=S4R
  *Element, type=S3R
  *Element, type=S4R
  *Element, type=S3R
  *Element, type=S4R
  *Element, type=S3R
  *Element, type=S4R
  *Element, type=S3R
  *Element, type=S4R
  *Element, type=S3R
  *Element, type=S4R
  *Element, type=S3R
  *Element, type=S4R
  *Element, type=S3R
  *Element, type=S4R
  *Elset, elset=ASSEMBLY_UPPER_SKIN-INSTANCE_UPPER_SKIN
  *Node
  *Element, type=S4R
  *Element, type=S3R
  *Element, type=S4R
  *Element, type=S3R
  *Element, type=S4R
  *Element, type=S3R
  *Element, type=S4R
  *Element, type=S3R
  *Element, type=S4R
  *Element, type=S3R
  *Element, type=S4R
  *Element, type=S3R
  *Element, type=S4R
  *Element, type=S3R
  *Element, type=S4R
  *Element, type=S3R
  *Element, type=S4R
  *Element, type=S3R
  *Element, type=S4R
  *Element, type=S3R
  *Element, type=S4R
  *Element, type=S3R
  *Element, type=S4R
  *Element, type=S3R
  *Element, type=S4R
  *Elset, elset=ASSEMBLY_LOWER_SKIN-INSTANCE_LOWER_SKIN
  *Node
  *Element, type=S4R
  *Element, type=S3R
  *Element, type=S4R
  *Element, type=S3R
  *Element, type=S4R
  *Element, type=S3R
  *Element, type=S4R
  *Elset, elset=ASSEMBLY_FRONT_SPAR-INSTANCE_FRONT_SPAR
  *Node
  *Element, type=S4R
  *Element, type=S3R
  *Element, type=S4R
  *Element, type=S3R
  *Element, type=S4R
  *Elset, elset=ASSEMBLY_REAR_SPAR-INSTANCE_REAR_SPAR
  *Node
  *Element, type=S4R
  *Element, type=S3R
  *Element, type=S4R
  *Element, type=S3R
  *Element, type=S4R
  *Element, type=S3R
  *Element, type=S4R
  *Element, type=S3R
  *Element, type=S4R
  *Element, type=S3R
  *Element, type=S4R
  *Element, type=S3R
  *Element, type=S4R
  *Element, type=S3R
  *Element, type=S4R
  *Element, type=S3R
  *Element, type=S4R
  *Elset, elset=ASSEMBLY_UPPER_STRINGERS-INSTANCE_UPPER_STRINGERS
  *Node
  *Element, type=S4R
  *Element, type=S3R
  *Element, type=S4R
  *Element, type=S3R
  *Element, type=S4R
  *Element, type=S3R
  *Element, type=S4R
  *Element, type=S3R
  *Element, type=S4R
  *Element, type=S3R
  *Element, type=S4R
  *Element, type=S3R
  *Element, type=S4R
  *Element, type=S3R
  *Element, type=S4R
  *Element, type=S3R
  *Element, type=S4R
  *Elset, elset=ASSEMBLY_LOWER_STRINGERS-INSTANCE_LOWER_STRINGERS
  *Node
  *Element, type=S4R
  *Elset, elset=ASSEMBLY_UPPER_SKIN_CENTRE_SECTION-INSTANCE_UPPER_SKIN_CENTRE_SECTION
  *Node
  *Element, type=S4R
  *Elset, elset=ASSEMBLY_LOWER_SKIN_CENTRE_SECTION-INSTANCE_LOWER_SKIN_CENTRE_SECTION
  *Node
  *Element, type=S4R
  *Elset, elset=ASSEMBLY_FRONT_SPAR_CENTRE_SECTION-INSTANCE_FRONT_SPAR_CENTRE_SECTION
  *Node
  *Element, type=S4R
  *Elset, elset=ASSEMBLY_REAR_SPAR_CENTRE_SECTION-INSTANCE_REAR_SPAR_CENTRE_SECTION
  *Node
  *Element, type=S4R
  *Element, type=S3R
  *Element, type=S4R
  *Element, type=S3R
  *Element, type=S4R
  *Element, type=S3R
  *Element, type=S4R
  *Element, type=S3R
  *Element, type=S4R
  *Element, type=S3R
  *Element, type=S4R
  *Elset, elset=ASSEMBLY_RIBS_CENTRE_SECTION-INSTANCE_RIBS_CENTRE_SECTION
  *Node
  *Element, type=S4R
  *Elset, elset=ASSEMBLY_UPPER_STRINGERS_CENTRE_SECTION-INSTANCE_UPPER_STRINGERS_CENTRE_SECTION
  *Node
  *Element, type=S4R
  *Elset, elset=ASSEMBLY_LOWER_STRINGERS_CENTRE_SECTION-INSTANCE_LOWER_STRINGERS_CENTRE_SECTION
  *Nset, nset=ASSEMBLY_ENGINE_0_MASS
  *Nset, nset=ASSEMBLY_ENGINE_0_MASS-1
  *Nset, nset=ASSEMBLY_LOADPOINTS
  *Nset, nset=ASSEMBLY_LOADPOINTS-1
  *Nset, nset=ASSEMBLY_LOADPOINTS-10
  *Nset, nset=ASSEMBLY_LOADPOINTS-100
  *Nset, nset=ASSEMBLY_LOADPOINTS-101
  *Nset, nset=ASSEMBLY_LOADPOINTS-102
  *Nset, nset=ASSEMBLY_LOADPOINTS-103
  *Nset, nset=ASSEMBLY_LOADPOINTS-104
  *Nset, nset=ASSEMBLY_LOADPOINTS-105
  *Nset, nset=ASSEMBLY_LOADPOINTS-106
  *Nset, nset=ASSEMBLY_LOADPOINTS-107
  *Nset, nset=ASSEMBLY_LOADPOINTS-108
  *Nset, nset=ASSEMBLY_LOADPOINTS-109
  *Nset, nset=ASSEMBLY_LOADPOINTS-11
  *Nset, nset=ASSEMBLY_LOADPOINTS-110
  *Nset, nset=ASSEMBLY_LOADPOINTS-111
  *Nset, nset=ASSEMBLY_LOADPOINTS-112
  *Nset, nset=ASSEMBLY_LOADPOINTS-113
  *Nset, nset=ASSEMBLY_LOADPOINTS-12
  *Nset, nset=ASSEMBLY_LOADPOINTS-13
  *Nset, nset=ASSEMBLY_LOADPOINTS-14
  *Nset, nset=ASSEMBLY_LOADPOINTS-15
  *Nset, nset=ASSEMBLY_LOADPOINTS-16
  *Nset, nset=ASSEMBLY_LOADPOINTS-17
  *Nset, nset=ASSEMBLY_LOADPOINTS-18
  *Nset, nset=ASSEMBLY_LOADPOINTS-19
  *Nset, nset=ASSEMBLY_LOADPOINTS-2
  *Nset, nset=ASSEMBLY_LOADPOINTS-20
  *Nset, nset=ASSEMBLY_LOADPOINTS-21
  *Nset, nset=ASSEMBLY_LOADPOINTS-22
  *Nset, nset=ASSEMBLY_LOADPOINTS-23
  *Nset, nset=ASSEMBLY_LOADPOINTS-24
  *Nset, nset=ASSEMBLY_LOADPOINTS-25
  *Nset, nset=ASSEMBLY_LOADPOINTS-26
  *Nset, nset=ASSEMBLY_LOADPOINTS-27
  *Nset, nset=ASSEMBLY_LOADPOINTS-28
  *Nset, nset=ASSEMBLY_LOADPOINTS-29
  *Nset, nset=ASSEMBLY_LOADPOINTS-3
  *Nset, nset=ASSEMBLY_LOADPOINTS-30
  *Nset, nset=ASSEMBLY_LOADPOINTS-31
  *Nset, nset=ASSEMBLY_LOADPOINTS-32
  *Nset, nset=ASSEMBLY_LOADPOINTS-33
  *Nset, nset=ASSEMBLY_LOADPOINTS-34
  *Nset, nset=ASSEMBLY_LOADPOINTS-35
  *Nset, nset=ASSEMBLY_LOADPOINTS-36
  *Nset, nset=ASSEMBLY_LOADPOINTS-37
  *Nset, nset=ASSEMBLY_LOADPOINTS-38
  *Nset, nset=ASSEMBLY_LOADPOINTS-39
  *Nset, nset=ASSEMBLY_LOADPOINTS-4
  *Nset, nset=ASSEMBLY_LOADPOINTS-40
  *Nset, nset=ASSEMBLY_LOADPOINTS-41
  *Nset, nset=ASSEMBLY_LOADPOINTS-42
  *Nset, nset=ASSEMBLY_LOADPOINTS-43
  *Nset, nset=ASSEMBLY_LOADPOINTS-44
  *Nset, nset=ASSEMBLY_LOADPOINTS-45
  *Nset, nset=ASSEMBLY_LOADPOINTS-46
  *Nset, nset=ASSEMBLY_LOADPOINTS-47
  *Nset, nset=ASSEMBLY_LOADPOINTS-48
  *Nset, nset=ASSEMBLY_LOADPOINTS-49
  *Nset, nset=ASSEMBLY_LOADPOINTS-5
  *Nset, nset=ASSEMBLY_LOADPOINTS-50
  *Nset, nset=ASSEMBLY_LOADPOINTS-51
  *Nset, nset=ASSEMBLY_LOADPOINTS-52
  *Nset, nset=ASSEMBLY_LOADPOINTS-53
  *Nset, nset=ASSEMBLY_LOADPOINTS-54
  *Nset, nset=ASSEMBLY_LOADPOINTS-55
  *Nset, nset=ASSEMBLY_LOADPOINTS-56
  *Nset, nset=ASSEMBLY_LOADPOINTS-57
  *Nset, nset=ASSEMBLY_LOADPOINTS-58
  *Nset, nset=ASSEMBLY_LOADPOINTS-59
  *Nset, nset=ASSEMBLY_LOADPOINTS-6
  *Nset, nset=ASSEMBLY_LOADPOINTS-60
  *Nset, nset=ASSEMBLY_LOADPOINTS-61
  *Nset, nset=ASSEMBLY_LOADPOINTS-62
  *Nset, nset=ASSEMBLY_LOADPOINTS-63
  *Nset, nset=ASSEMBLY_LOADPOINTS-64
  *Nset, nset=ASSEMBLY_LOADPOINTS-65
  *Nset, nset=ASSEMBLY_LOADPOINTS-66
  *Nset, nset=ASSEMBLY_LOADPOINTS-67
  *Nset, nset=ASSEMBLY_LOADPOINTS-68
  *Nset, nset=ASSEMBLY_LOADPOINTS-69
  *Nset, nset=ASSEMBLY_LOADPOINTS-7
  *Nset, nset=ASSEMBLY_LOADPOINTS-70
  *Nset, nset=ASSEMBLY_LOADPOINTS-71
  *Nset, nset=ASSEMBLY_LOADPOINTS-72
  *Nset, nset=ASSEMBLY_LOADPOINTS-73
  *Nset, nset=ASSEMBLY_LOADPOINTS-74
  *Nset, nset=ASSEMBLY_LOADPOINTS-75
  *Nset, nset=ASSEMBLY_LOADPOINTS-76
  *Nset, nset=ASSEMBLY_LOADPOINTS-77
  *Nset, nset=ASSEMBLY_LOADPOINTS-78
  *Nset, nset=ASSEMBLY_LOADPOINTS-79
  *Nset, nset=ASSEMBLY_LOADPOINTS-8
  *Nset, nset=ASSEMBLY_LOADPOINTS-80
  *Nset, nset=ASSEMBLY_LOADPOINTS-81
  *Nset, nset=ASSEMBLY_LOADPOINTS-82
  *Nset, nset=ASSEMBLY_LOADPOINTS-83
  *Nset, nset=ASSEMBLY_LOADPOINTS-84
  *Nset, nset=ASSEMBLY_LOADPOINTS-85
  *Nset, nset=ASSEMBLY_LOADPOINTS-86
  *Nset, nset=ASSEMBLY_LOADPOINTS-87
  *Nset, nset=ASSEMBLY_LOADPOINTS-88
  *Nset, nset=ASSEMBLY_LOADPOINTS-89
  *Nset, nset=ASSEMBLY_LOADPOINTS-9
  *Nset, nset=ASSEMBLY_LOADPOINTS-90
  *Nset, nset=ASSEMBLY_LOADPOINTS-91
  *Nset, nset=ASSEMBLY_LOADPOINTS-92
  *Nset, nset=ASSEMBLY_LOADPOINTS-93
  *Nset, nset=ASSEMBLY_LOADPOINTS-94
  *Nset, nset=ASSEMBLY_LOADPOINTS-95
  *Nset, nset=ASSEMBLY_LOADPOINTS-96
  *Nset, nset=ASSEMBLY_LOADPOINTS-97
  *Nset, nset=ASSEMBLY_LOADPOINTS-98
  *Nset, nset=ASSEMBLY_LOADPOINTS-99
  *Nset, nset=ASSEMBLY_SET
  *Nset, nset=ASSEMBLY_SET-1
  *Nset, nset=ASSEMBLY_SET-2
  *Nset, nset=ASSEMBLY_SET-3
  *Nset, nset=ASSEMBLY_SET-4
  *Elset, elset=ASSEMBLY_NONE-ELSET-E1
  *Elset, elset=ASSEMBLY_NONE-ELSET-E1-1
  *Elset, elset=ASSEMBLY_NONE-ELSET-E1-10
  *Elset, elset=ASSEMBLY_NONE-ELSET-E1-11
  *Elset, elset=ASSEMBLY_NONE-ELSET-E1-12
  *Elset, elset=ASSEMBLY_NONE-ELSET-E1-13
  *Elset, elset=ASSEMBLY_NONE-ELSET-E1-14
  *Elset, elset=ASSEMBLY_NONE-ELSET-E1-15
  *Elset, elset=ASSEMBLY_NONE-ELSET-E1-2
  *Elset, elset=ASSEMBLY_NONE-ELSET-E1-3
  *Elset, elset=ASSEMBLY_NONE-ELSET-E1-4
  *Elset, elset=ASSEMBLY_NONE-ELSET-E1-5
  *Elset, elset=ASSEMBLY_NONE-ELSET-E1-6
  *Elset, elset=ASSEMBLY_NONE-ELSET-E1-7
  *Elset, elset=ASSEMBLY_NONE-ELSET-E1-8
  *Elset, elset=ASSEMBLY_NONE-ELSET-E1-9
  *Elset, elset=ASSEMBLY_NONE-ELSET-E2
  *Elset, elset=ASSEMBLY_NONE-ELSET-E2-1
  *Elset, elset=ASSEMBLY_NONE-ELSET-E2-10
  *Elset, elset=ASSEMBLY_NONE-ELSET-E2-11
  *Elset, elset=ASSEMBLY_NONE-ELSET-E2-12
  *Elset, elset=ASSEMBLY_NONE-ELSET-E2-13
  *Elset, elset=ASSEMBLY_NONE-ELSET-E2-14
  *Elset, elset=ASSEMBLY_NONE-ELSET-E2-15
  *Elset, elset=ASSEMBLY_NONE-ELSET-E2-16
  *Elset, elset=ASSEMBLY_NONE-ELSET-E2-17
  *Elset, elset=ASSEMBLY_NONE-ELSET-E2-18
  *Elset, elset=ASSEMBLY_NONE-ELSET-E2-19
  *Elset, elset=ASSEMBLY_NONE-ELSET-E2-2
  *Elset, elset=ASSEMBLY_NONE-ELSET-E2-20
  *Elset, elset=ASSEMBLY_NONE-ELSET-E2-21
  *Elset, elset=ASSEMBLY_NONE-ELSET-E2-3
  *Elset, elset=ASSEMBLY_NONE-ELSET-E2-4
  *Elset, elset=ASSEMBLY_NONE-ELSET-E2-5
  *Elset, elset=ASSEMBLY_NONE-ELSET-E2-6
  *Elset, elset=ASSEMBLY_NONE-ELSET-E2-7
  *Elset, elset=ASSEMBLY_NONE-ELSET-E2-8
  *Elset, elset=ASSEMBLY_NONE-ELSET-E2-9
  *Elset, elset=ASSEMBLY_NONE-ELSET-E3
  *Elset, elset=ASSEMBLY_NONE-ELSET-E3-1
  *Elset, elset=ASSEMBLY_NONE-ELSET-E3-2
  *Elset, elset=ASSEMBLY_NONE-ELSET-E3-3
  *Elset, elset=ASSEMBLY_NONE-ELSET-E3-4
  *Elset, elset=ASSEMBLY_NONE-ELSET-E3-5
  *Elset, elset=ASSEMBLY_NONE-ELSET-E4
  *Elset, elset=ASSEMBLY_NONE-ELSET-E4-1
  *Elset, elset=ASSEMBLY_NONE-ELSET-E4-10
  *Elset, elset=ASSEMBLY_NONE-ELSET-E4-11
  *Elset, elset=ASSEMBLY_NONE-ELSET-E4-12
  *Elset, elset=ASSEMBLY_NONE-ELSET-E4-13
  *Elset, elset=ASSEMBLY_NONE-ELSET-E4-14
  *Elset, elset=ASSEMBLY_NONE-ELSET-E4-15
  *Elset, elset=ASSEMBLY_NONE-ELSET-E4-2
  *Elset, elset=ASSEMBLY_NONE-ELSET-E4-3
  *Elset, elset=ASSEMBLY_NONE-ELSET-E4-4
  *Elset, elset=ASSEMBLY_NONE-ELSET-E4-5
  *Elset, elset=ASSEMBLY_NONE-ELSET-E4-6
  *Elset, elset=ASSEMBLY_NONE-ELSET-E4-7
  *Elset, elset=ASSEMBLY_NONE-ELSET-E4-8
  *Elset, elset=ASSEMBLY_NONE-ELSET-E4-9
  *Elset, elset=ASSEMBLY_NONE-SET
  *Elset, elset=ASSEMBLY_NONE-SET-1
  *Elset, elset=ASSEMBLY_NONE-SET-10
  *Elset, elset=ASSEMBLY_NONE-SET-11
  *Elset, elset=ASSEMBLY_NONE-SET-12
  *Elset, elset=ASSEMBLY_NONE-SET-13
  *Elset, elset=ASSEMBLY_NONE-SET-14
  *Elset, elset=ASSEMBLY_NONE-SET-15
  *Elset, elset=ASSEMBLY_NONE-SET-16
  *Elset, elset=ASSEMBLY_NONE-SET-17
  *Elset, elset=ASSEMBLY_NONE-SET-18
  *Elset, elset=ASSEMBLY_NONE-SET-19
  *Elset, elset=ASSEMBLY_NONE-SET-2
  *Elset, elset=ASSEMBLY_NONE-SET-20
  *Elset, elset=ASSEMBLY_NONE-SET-21
  *Elset, elset=ASSEMBLY_NONE-SET-22
  *Elset, elset=ASSEMBLY_NONE-SET-23
  *Elset, elset=ASSEMBLY_NONE-SET-24
  *Elset, elset=ASSEMBLY_NONE-SET-25
  *Elset, elset=ASSEMBLY_NONE-SET-26
  *Elset, elset=ASSEMBLY_NONE-SET-27
  *Elset, elset=ASSEMBLY_NONE-SET-28
  *Elset, elset=ASSEMBLY_NONE-SET-29
  *Elset, elset=ASSEMBLY_NONE-SET-3
  *Elset, elset=ASSEMBLY_NONE-SET-30
  *Elset, elset=ASSEMBLY_NONE-SET-31
  *Elset, elset=ASSEMBLY_NONE-SET-32
  *Elset, elset=ASSEMBLY_NONE-SET-33
  *Elset, elset=ASSEMBLY_NONE-SET-34
  *Elset, elset=ASSEMBLY_NONE-SET-35
  *Elset, elset=ASSEMBLY_NONE-SET-36
  *Elset, elset=ASSEMBLY_NONE-SET-37
  *Elset, elset=ASSEMBLY_NONE-SET-38
  *Elset, elset=ASSEMBLY_NONE-SET-39
  *Elset, elset=ASSEMBLY_NONE-SET-4
  *Elset, elset=ASSEMBLY_NONE-SET-40
  *Elset, elset=ASSEMBLY_NONE-SET-41
  *Elset, elset=ASSEMBLY_NONE-SET-42
  *Elset, elset=ASSEMBLY_NONE-SET-43
  *Elset, elset=ASSEMBLY_NONE-SET-44
  *Elset, elset=ASSEMBLY_NONE-SET-5
  *Elset, elset=ASSEMBLY_NONE-SET-6
  *Elset, elset=ASSEMBLY_NONE-SET-7
  *Elset, elset=ASSEMBLY_NONE-SET-8
  *Elset, elset=ASSEMBLY_NONE-SET-9
  *material, name=USER-CHOSEN_MATERIAL
  *density
  *elastic
  *shellsection, elset=ASSEMBLY_UPPER_SKIN-INSTANCE_UPPER_SKIN, material=USER-CHOSEN_MATERIAL
  *shellsection, elset=ASSEMBLY_LOWER_SKIN-INSTANCE_LOWER_SKIN, material=USER-CHOSEN_MATERIAL
  *shellsection, elset=ASSEMBLY_FRONT_SPAR-INSTANCE_FRONT_SPAR, material=USER-CHOSEN_MATERIAL
  *shellsection, elset=ASSEMBLY_REAR_SPAR-INSTANCE_REAR_SPAR, material=USER-CHOSEN_MATERIAL
  *shellsection, elset=ASSEMBLY_UPPER_STRINGERS-INSTANCE_UPPER_STRINGERS, material=USER-CHOSEN_MATERIAL
  *shellsection, elset=ASSEMBLY_LOWER_STRINGERS-INSTANCE_LOWER_STRINGERS, material=USER-CHOSEN_MATERIAL
  *shellsection, elset=ASSEMBLY_UPPER_SKIN_CENTRE_SECTION-INSTANCE_UPPER_SKIN_CENTRE_SECTION, material=USER-CHOSEN_MATERIAL
  *shellsection, elset=ASSEMBLY_LOWER_SKIN_CENTRE_SECTION-INSTANCE_LOWER_SKIN_CENTRE_SECTION, material=USER-CHOSEN_MATERIAL
  *shellsection, elset=ASSEMBLY_FRONT_SPAR_CENTRE_SECTION-INSTANCE_FRONT_SPAR_CENTRE_SECTION, material=USER-CHOSEN_MATERIAL
  *shellsection, elset=ASSEMBLY_REAR_SPAR_CENTRE_SECTION-INSTANCE_REAR_SPAR_CENTRE_SECTION, material=USER-CHOSEN_MATERIAL
  *shellsection, elset=ASSEMBLY_RIBS_CENTRE_SECTION-INSTANCE_RIBS_CENTRE_SECTION, material=USER-CHOSEN_MATERIAL
  *shellsection, elset=ASSEMBLY_UPPER_STRINGERS_CENTRE_SECTION-INSTANCE_UPPER_STRINGERS_CENTRE_SECTION, material=USER-CHOSEN_MATERIAL
  *shellsection, elset=ASSEMBLY_LOWER_STRINGERS_CENTRE_SECTION-INSTANCE_LOWER_STRINGERS_CENTRE_SECTION, material=USER-CHOSEN_MATERIAL
  *shellsection, elset=ASSEMBLY_UPPER_SKIN-INSTANCE_UPPER_SKIN, material=USER-CHOSEN_MATERIAL
  *shellsection, elset=ASSEMBLY_LOWER_SKIN-INSTANCE_LOWER_SKIN, material=USER-CHOSEN_MATERIAL
  *shellsection, elset=ASSEMBLY_FRONT_SPAR-INSTANCE_FRONT_SPAR, material=USER-CHOSEN_MATERIAL
  *shellsection, elset=ASSEMBLY_REAR_SPAR-INSTANCE_REAR_SPAR, material=USER-CHOSEN_MATERIAL
  *shellsection, elset=ASSEMBLY_UPPER_STRINGERS-INSTANCE_UPPER_STRINGERS, material=USER-CHOSEN_MATERIAL
  *shellsection, elset=ASSEMBLY_LOWER_STRINGERS-INSTANCE_LOWER_STRINGERS, material=USER-CHOSEN_MATERIAL
  *shellsection, elset=ASSEMBLY_UPPER_SKIN_CENTRE_SECTION-INSTANCE_UPPER_SKIN_CENTRE_SECTION, material=USER-CHOSEN_MATERIAL
  *shellsection, elset=ASSEMBLY_LOWER_SKIN_CENTRE_SECTION-INSTANCE_LOWER_SKIN_CENTRE_SECTION, material=USER-CHOSEN_MATERIAL
  *shellsection, elset=ASSEMBLY_FRONT_SPAR_CENTRE_SECTION-INSTANCE_FRONT_SPAR_CENTRE_SECTION, material=USER-CHOSEN_MATERIAL
  *shellsection, elset=ASSEMBLY_REAR_SPAR_CENTRE_SECTION-INSTANCE_REAR_SPAR_CENTRE_SECTION, material=USER-CHOSEN_MATERIAL
  *shellsection, elset=ASSEMBLY_RIBS_CENTRE_SECTION-INSTANCE_RIBS_CENTRE_SECTION, material=USER-CHOSEN_MATERIAL
  *shellsection, elset=ASSEMBLY_UPPER_STRINGERS_CENTRE_SECTION-INSTANCE_UPPER_STRINGERS_CENTRE_SECTION, material=USER-CHOSEN_MATERIAL
  *shellsection, elset=ASSEMBLY_LOWER_STRINGERS_CENTRE_SECTION-INSTANCE_LOWER_STRINGERS_CENTRE_SECTION, material=USER-CHOSEN_MATERIAL
  *tie, name=ASSEMBLY_TIE, type=SURFACETOSURFACE
  *tie, name=ASSEMBLY_TIE-1, type=SURFACETOSURFACE
  *tie, name=ASSEMBLY_TIE-2, type=SURFACETOSURFACE
  *tie, name=ASSEMBLY_TIE-3, type=SURFACETOSURFACE
  *tie, name=ASSEMBLY_TIE-4, type=SURFACETOSURFACE
  *tie, name=ASSEMBLY_TIE-5, type=SURFACETOSURFACE
  *tie, name=ASSEMBLY_TIE-6, type=SURFACETOSURFACE
  *tie, name=ASSEMBLY_TIE-7, type=SURFACETOSURFACE
  *tie, name=ASSEMBLY_TIE-8, type=SURFACETOSURFACE
  *tie, name=ASSEMBLY_TIE-9, type=SURFACETOSURFACE
  *tie, name=ASSEMBLY_TIE-10, type=SURFACETOSURFACE
  *tie, name=ASSEMBLY_TIE-11, type=SURFACETOSURFACE
  *tie, name=ASSEMBLY_TIE-12, type=SURFACETOSURFACE
  *tie, name=ASSEMBLY_TIE-13, type=SURFACETOSURFACE
  *tie, name=ASSEMBLY_TIE-14, type=SURFACETOSURFACE
  *tie, name=ASSEMBLY_TIE-15, type=SURFACETOSURFACE
  *tie, name=ASSEMBLY_TIE-16, type=SURFACETOSURFACE
  *tie, name=ASSEMBLY_TIE-17, type=SURFACETOSURFACE
  *tie, name=ASSEMBLY_TIE-18, type=SURFACETOSURFACE
  *tie, name=ASSEMBLY_TIE-19, type=SURFACETOSURFACE
  *tie, name=ASSEMBLY_TIE-20, type=SURFACETOSURFACE
  *tie, name=ASSEMBLY_TIE-21, type=SURFACETOSURFACE
  *tie, name=ASSEMBLY_TIE-22, type=SURFACETOSURFACE
  *tie, name=ASSEMBLY_TIE-23, type=SURFACETOSURFACE
  *tie, name=ASSEMBLY_TIE-24, type=SURFACETOSURFACE
  *tie, name=ASSEMBLY_TIE-25, type=SURFACETOSURFACE
  *tie, name=ASSEMBLY_TIE-26, type=SURFACETOSURFACE
  *tie, name=ASSEMBLY_TIE-27, type=SURFACETOSURFACE
  *tie, name=ASSEMBLY_TIE-28, type=SURFACETOSURFACE
  *tie, name=ASSEMBLY_TIE-29, type=SURFACETOSURFACE
  *surface, type=ELEMENT, name=ASSEMBLY_SURFACE
  *surface, type=ELEMENT, name=ASSEMBLY_SURFACE-1
  *surface, type=ELEMENT, name=ASSEMBLY_SURFACE-2
  *surface, type=ELEMENT, name=ASSEMBLY_SURFACE-3
  *surface, type=ELEMENT, name=ASSEMBLY_SURFACE-4
  *surface, type=ELEMENT, name=ASSEMBLY_SURFACE-5
  *surface, type=ELEMENT, name=ASSEMBLY_SURFACE-6
  *surface, type=ELEMENT, name=ASSEMBLY_SURFACE-7
  *surface, type=ELEMENT, name=ASSEMBLY_SURFACE-8
  *surface, type=ELEMENT, name=ASSEMBLY_SURFACE-9
  *surface, type=ELEMENT, name=ASSEMBLY_SURFACE-10
  *surface, type=ELEMENT, name=ASSEMBLY_SURFACE-11
  *surface, type=ELEMENT, name=ASSEMBLY_SURFACE-12
  *surface, type=ELEMENT, name=ASSEMBLY_SURFACE-13
  *surface, type=ELEMENT, name=ASSEMBLY_SURFACE-14
  *surface, type=ELEMENT, name=ASSEMBLY_SURFACE-15
  *surface, type=ELEMENT, name=ASSEMBLY_SURFACE-16
  *surface, type=ELEMENT, name=ASSEMBLY_SURFACE-17
  *surface, type=ELEMENT, name=ASSEMBLY_SURFACE-18
  *surface, type=ELEMENT, name=ASSEMBLY_SURFACE-19
  *surface, type=ELEMENT, name=ASSEMBLY_SURFACE-20
  *surface, type=ELEMENT, name=ASSEMBLY_SURFACE-21
  *surface, type=ELEMENT, name=ASSEMBLY_SURFACE-22
  *surface, type=ELEMENT, name=ASSEMBLY_SURFACE-23
  *surface, type=ELEMENT, name=ASSEMBLY_SURFACE-24
  *surface, type=ELEMENT, name=ASSEMBLY_SURFACE-25
  *surface, type=ELEMENT, name=ASSEMBLY_SURFACE-26
  *surface, type=ELEMENT, name=ASSEMBLY_SURFACE-27
  *surface, type=ELEMENT, name=ASSEMBLY_SURFACE-28
  *surface, type=ELEMENT, name=ASSEMBLY_SURFACE-29
  *surface, type=ELEMENT, name=ASSEMBLY_SURFACE-30
  *surface, type=ELEMENT, name=ASSEMBLY_SURFACE-31
  *surface, type=ELEMENT, name=ASSEMBLY_SURFACE-32
  *surface, type=ELEMENT, name=ASSEMBLY_SURFACE-33
  *surface, type=ELEMENT, name=ASSEMBLY_SURFACE-34
  *surface, type=ELEMENT, name=ASSEMBLY_SURFACE-35
  *surface, type=ELEMENT, name=ASSEMBLY_SURFACE-36
  *surface, type=ELEMENT, name=ASSEMBLY_SURFACE-37
  *surface, type=ELEMENT, name=ASSEMBLY_SURFACE-38
  *surface, type=ELEMENT, name=ASSEMBLY_SURFACE-39
  *surface, type=ELEMENT, name=ASSEMBLY_SURFACE-40
  *surface, type=ELEMENT, name=ASSEMBLY_SURFACE-41
  *surface, type=ELEMENT, name=ASSEMBLY_SURFACE-42
  *surface, type=ELEMENT, name=ASSEMBLY_SURFACE-43
  *surface, type=ELEMENT, name=ASSEMBLY_SURFACE-44
  *surface, type=ELEMENT, name=ASSEMBLY_SURFACE-45
  *surface, type=ELEMENT, name=ASSEMBLY_SURFACE-46
  *surface, type=ELEMENT, name=ASSEMBLY_SURFACE-47
  *surface, type=ELEMENT, name=ASSEMBLY_SURFACE-48
  *surface, type=ELEMENT, name=ASSEMBLY_SURFACE-49

 ***NOTE: DUE TO EXCESSIVE REPORTING, THE ECHO OF THE *SURFACE OPTION IS BEING 
          SUPPRESSED.
  *tie, name=ASSEMBLY_TIE, type=SURFACETOSURFACE
  *tie, name=ASSEMBLY_TIE-1, type=SURFACETOSURFACE
  *tie, name=ASSEMBLY_TIE-2, type=SURFACETOSURFACE
  *tie, name=ASSEMBLY_TIE-3, type=SURFACETOSURFACE
  *tie, name=ASSEMBLY_TIE-4, type=SURFACETOSURFACE
  *tie, name=ASSEMBLY_TIE-5, type=SURFACETOSURFACE
  *tie, name=ASSEMBLY_TIE-6, type=SURFACETOSURFACE
  *tie, name=ASSEMBLY_TIE-7, type=SURFACETOSURFACE
  *tie, name=ASSEMBLY_TIE-8, type=SURFACETOSURFACE
  *tie, name=ASSEMBLY_TIE-9, type=SURFACETOSURFACE
  *tie, name=ASSEMBLY_TIE-10, type=SURFACETOSURFACE
  *tie, name=ASSEMBLY_TIE-11, type=SURFACETOSURFACE
  *tie, name=ASSEMBLY_TIE-12, type=SURFACETOSURFACE
  *tie, name=ASSEMBLY_TIE-13, type=SURFACETOSURFACE
  *tie, name=ASSEMBLY_TIE-14, type=SURFACETOSURFACE
  *tie, name=ASSEMBLY_TIE-15, type=SURFACETOSURFACE
  *tie, name=ASSEMBLY_TIE-16, type=SURFACETOSURFACE
  *tie, name=ASSEMBLY_TIE-17, type=SURFACETOSURFACE
  *tie, name=ASSEMBLY_TIE-18, type=SURFACETOSURFACE
  *tie, name=ASSEMBLY_TIE-19, type=SURFACETOSURFACE
  *tie, name=ASSEMBLY_TIE-20, type=SURFACETOSURFACE
  *tie, name=ASSEMBLY_TIE-21, type=SURFACETOSURFACE
  *tie, name=ASSEMBLY_TIE-22, type=SURFACETOSURFACE
  *tie, name=ASSEMBLY_TIE-23, type=SURFACETOSURFACE
  *tie, name=ASSEMBLY_TIE-24, type=SURFACETOSURFACE
  *tie, name=ASSEMBLY_TIE-25, type=SURFACETOSURFACE
  *tie, name=ASSEMBLY_TIE-26, type=SURFACETOSURFACE
  *tie, name=ASSEMBLY_TIE-27, type=SURFACETOSURFACE
  *tie, name=ASSEMBLY_TIE-28, type=SURFACETOSURFACE
  *tie, name=ASSEMBLY_TIE-29, type=SURFACETOSURFACE
  *tie, name=ASSEMBLY_TIE, type=SURFACETOSURFACE
  *tie, name=ASSEMBLY_TIE-1, type=SURFACETOSURFACE
  *tie, name=ASSEMBLY_TIE-2, type=SURFACETOSURFACE
  *tie, name=ASSEMBLY_TIE-3, type=SURFACETOSURFACE
  *tie, name=ASSEMBLY_TIE-4, type=SURFACETOSURFACE
  *tie, name=ASSEMBLY_TIE-5, type=SURFACETOSURFACE
  *tie, name=ASSEMBLY_TIE-6, type=SURFACETOSURFACE
  *tie, name=ASSEMBLY_TIE-7, type=SURFACETOSURFACE
  *tie, name=ASSEMBLY_TIE-8, type=SURFACETOSURFACE
  *tie, name=ASSEMBLY_TIE-9, type=SURFACETOSURFACE
  *tie, name=ASSEMBLY_TIE-10, type=SURFACETOSURFACE
  *tie, name=ASSEMBLY_TIE-11, type=SURFACETOSURFACE
  *tie, name=ASSEMBLY_TIE-12, type=SURFACETOSURFACE
  *tie, name=ASSEMBLY_TIE-13, type=SURFACETOSURFACE
  *tie, name=ASSEMBLY_TIE-14, type=SURFACETOSURFACE
  *tie, name=ASSEMBLY_TIE-15, type=SURFACETOSURFACE
  *tie, name=ASSEMBLY_TIE-16, type=SURFACETOSURFACE
  *tie, name=ASSEMBLY_TIE-17, type=SURFACETOSURFACE
  *tie, name=ASSEMBLY_TIE-18, type=SURFACETOSURFACE
  *tie, name=ASSEMBLY_TIE-19, type=SURFACETOSURFACE
  *tie, name=ASSEMBLY_TIE-20, type=SURFACETOSURFACE
  *tie, name=ASSEMBLY_TIE-21, type=SURFACETOSURFACE
  *tie, name=ASSEMBLY_TIE-22, type=SURFACETOSURFACE
  *tie, name=ASSEMBLY_TIE-23, type=SURFACETOSURFACE
  *tie, name=ASSEMBLY_TIE-24, type=SURFACETOSURFACE
  *tie, name=ASSEMBLY_TIE-25, type=SURFACETOSURFACE
  *tie, name=ASSEMBLY_TIE-26, type=SURFACETOSURFACE
  *tie, name=ASSEMBLY_TIE-27, type=SURFACETOSURFACE
  *tie, name=ASSEMBLY_TIE-28, type=SURFACETOSURFACE
  *tie, name=ASSEMBLY_TIE-29, type=SURFACETOSURFACE
  *tie, name=ASSEMBLY_TIE, type=SURFACETOSURFACE
  *tie, name=ASSEMBLY_TIE-1, type=SURFACETOSURFACE
  *tie, name=ASSEMBLY_TIE-2, type=SURFACETOSURFACE
  *tie, name=ASSEMBLY_TIE-3, type=SURFACETOSURFACE
  *tie, name=ASSEMBLY_TIE-4, type=SURFACETOSURFACE
  *tie, name=ASSEMBLY_TIE-5, type=SURFACETOSURFACE
  *tie, name=ASSEMBLY_TIE-6, type=SURFACETOSURFACE
  *tie, name=ASSEMBLY_TIE-7, type=SURFACETOSURFACE
  *tie, name=ASSEMBLY_TIE-8, type=SURFACETOSURFACE
  *tie, name=ASSEMBLY_TIE-9, type=SURFACETOSURFACE
  *tie, name=ASSEMBLY_TIE-10, type=SURFACETOSURFACE
  *tie, name=ASSEMBLY_TIE-11, type=SURFACETOSURFACE
  *tie, name=ASSEMBLY_TIE-12, type=SURFACETOSURFACE
  *tie, name=ASSEMBLY_TIE-13, type=SURFACETOSURFACE
  *tie, name=ASSEMBLY_TIE-14, type=SURFACETOSURFACE
  *tie, name=ASSEMBLY_TIE-15, type=SURFACETOSURFACE
  *tie, name=ASSEMBLY_TIE-16, type=SURFACETOSURFACE
  *tie, name=ASSEMBLY_TIE-17, type=SURFACETOSURFACE
  *tie, name=ASSEMBLY_TIE-18, type=SURFACETOSURFACE
  *tie, name=ASSEMBLY_TIE-19, type=SURFACETOSURFACE
  *tie, name=ASSEMBLY_TIE-20, type=SURFACETOSURFACE
  *tie, name=ASSEMBLY_TIE-21, type=SURFACETOSURFACE
  *tie, name=ASSEMBLY_TIE-22, type=SURFACETOSURFACE
  *tie, name=ASSEMBLY_TIE-23, type=SURFACETOSURFACE
  *tie, name=ASSEMBLY_TIE-24, type=SURFACETOSURFACE
  *tie, name=ASSEMBLY_TIE-25, type=SURFACETOSURFACE
  *tie, name=ASSEMBLY_TIE-26, type=SURFACETOSURFACE
  *tie, name=ASSEMBLY_TIE-27, type=SURFACETOSURFACE
  *tie, name=ASSEMBLY_TIE-28, type=SURFACETOSURFACE
  *tie, name=ASSEMBLY_TIE-29, type=SURFACETOSURFACE
  *boundary
  *boundary
  *boundary
  *boundary
  *boundary
  *boundary
  *boundary
  *boundary
  *boundary
  *boundary
  *tie, name=ASSEMBLY_TIE, type=SURFACETOSURFACE

 ***WARNING: FOR *TIE PAIR (ASSEMBLY_SURFACE-9-ASSEMBLY_SURFACE), ADJUSTMENT 
             WAS SPECIFIED BUT NO NODE WAS ADJUSTED MORE THAN THE ADJUSTMENT 
             DISTANCE = 2.22000E-16.
  *tie, name=ASSEMBLY_TIE-1, type=SURFACETOSURFACE

 ***WARNING: FOR *TIE PAIR (ASSEMBLY_SURFACE-12-ASSEMBLY_SURFACE-3), ADJUSTMENT 
             WAS SPECIFIED BUT NO NODE WAS ADJUSTED MORE THAN THE ADJUSTMENT 
             DISTANCE = 2.22000E-16.
  *tie, name=ASSEMBLY_TIE-2, type=SURFACETOSURFACE

 ***WARNING: FOR *TIE PAIR (ASSEMBLY_SURFACE-14-ASSEMBLY_SURFACE-1), ADJUSTMENT 
             WAS SPECIFIED BUT NO NODE WAS ADJUSTED MORE THAN THE ADJUSTMENT 
             DISTANCE = 2.22000E-16.
  *tie, name=ASSEMBLY_TIE-3, type=SURFACETOSURFACE

 ***WARNING: FOR *TIE PAIR (ASSEMBLY_SURFACE-17-ASSEMBLY_SURFACE-4), ADJUSTMENT 
             WAS SPECIFIED BUT NO NODE WAS ADJUSTED MORE THAN THE ADJUSTMENT 
             DISTANCE = 2.22000E-16.
  *tie, name=ASSEMBLY_TIE-4, type=SURFACETOSURFACE

 ***WARNING: FOR *TIE PAIR (ASSEMBLY_SURFACE-11-ASSEMBLY_SURFACE-5), ADJUSTMENT 
             WAS SPECIFIED BUT NO NODE WAS ADJUSTED MORE THAN THE ADJUSTMENT 
             DISTANCE = 2.22000E-16.
  *tie, name=ASSEMBLY_TIE-5, type=SURFACETOSURFACE

 ***WARNING: FOR *TIE PAIR (ASSEMBLY_SURFACE-13-ASSEMBLY_SURFACE-7), ADJUSTMENT 
             WAS SPECIFIED BUT NO NODE WAS ADJUSTED MORE THAN THE ADJUSTMENT 
             DISTANCE = 2.22000E-16.
  *tie, name=ASSEMBLY_TIE-6, type=SURFACETOSURFACE

 ***WARNING: FOR *TIE PAIR (ASSEMBLY_SURFACE-16-ASSEMBLY_SURFACE-6), ADJUSTMENT 
             WAS SPECIFIED BUT NO NODE WAS ADJUSTED MORE THAN THE ADJUSTMENT 
             DISTANCE = 2.22000E-16.
  *tie, name=ASSEMBLY_TIE-7, type=SURFACETOSURFACE

 ***WARNING: FOR *TIE PAIR (ASSEMBLY_SURFACE-18-ASSEMBLY_SURFACE-8), ADJUSTMENT 
             WAS SPECIFIED BUT NO NODE WAS ADJUSTED MORE THAN THE ADJUSTMENT 
             DISTANCE = 2.22000E-16.
  *tie, name=ASSEMBLY_TIE-8, type=SURFACETOSURFACE

 ***WARNING: FOR *TIE PAIR (ASSEMBLY_SURFACE-19-ASSEMBLY_SURFACE-23), ADJUSTED 
             NODES WITH VERY SMALL ADJUSTMENTS WERE NOT PRINTED. SPECIFY 
             *PREPRINT,MODEL=YES FOR COMPLETE PRINTOUT.
  *tie, name=ASSEMBLY_TIE-9, type=SURFACETOSURFACE

 ***WARNING: FOR *TIE PAIR (ASSEMBLY_SURFACE-20-ASSEMBLY_SURFACE-25), ADJUSTED 
             NODES WITH VERY SMALL ADJUSTMENTS WERE NOT PRINTED. SPECIFY 
             *PREPRINT,MODEL=YES FOR COMPLETE PRINTOUT.
  *tie, name=ASSEMBLY_TIE-10, type=SURFACETOSURFACE

 ***WARNING: FOR *TIE PAIR (ASSEMBLY_SURFACE-21-ASSEMBLY_SURFACE-24), ADJUSTED 
             NODES WITH VERY SMALL ADJUSTMENTS WERE NOT PRINTED. SPECIFY 
             *PREPRINT,MODEL=YES FOR COMPLETE PRINTOUT.
  *tie, name=ASSEMBLY_TIE-11, type=SURFACETOSURFACE

 ***WARNING: FOR *TIE PAIR (ASSEMBLY_SURFACE-22-ASSEMBLY_SURFACE-26), ADJUSTED 
             NODES WITH VERY SMALL ADJUSTMENTS WERE NOT PRINTED. SPECIFY 
             *PREPRINT,MODEL=YES FOR COMPLETE PRINTOUT.
  *tie, name=ASSEMBLY_TIE-12, type=SURFACETOSURFACE

 ***WARNING: FOR *TIE PAIR (ASSEMBLY_SURFACE-31-ASSEMBLY_SURFACE-35), 
             ADJUSTMENT WAS SPECIFIED BUT NO NODE WAS ADJUSTED MORE THAN THE 
             ADJUSTMENT DISTANCE = 2.22000E-16.
  *tie, name=ASSEMBLY_TIE-13, type=SURFACETOSURFACE

 ***WARNING: FOR *TIE PAIR (ASSEMBLY_SURFACE-32-ASSEMBLY_SURFACE-39), 
             ADJUSTMENT WAS SPECIFIED BUT NO NODE WAS ADJUSTED MORE THAN THE 
             ADJUSTMENT DISTANCE = 2.22000E-16.
  *tie, name=ASSEMBLY_TIE-14, type=SURFACETOSURFACE

 ***WARNING: PLEASE MAKE SURE THAT THE MESH DENSITY OF THE SECONDARY SURFACE IN 
             THE TIE PAIR (ASSEMBLY_SURFACE-37,ASSEMBLY_SURFACE-40) IS FINER 
             THAN THE MAIN SURFACE.  THE ANALYSIS MAY RUN SLOWER, MAY YIELD 
             INACCURATE RESULTS, AND MAY REQUIRE MORE MEMORY IF THIS IS NOT THE 
             CASE.

 ***WARNING: FOR *TIE PAIR (ASSEMBLY_SURFACE-37-ASSEMBLY_SURFACE-40), 
             ADJUSTMENT WAS SPECIFIED BUT NO NODE WAS ADJUSTED MORE THAN THE 
             ADJUSTMENT DISTANCE = 2.22000E-16.
  *tie, name=ASSEMBLY_TIE-15, type=SURFACETOSURFACE

 ***WARNING: PLEASE MAKE SURE THAT THE MESH DENSITY OF THE SECONDARY SURFACE IN 
             THE TIE PAIR (ASSEMBLY_SURFACE-37,ASSEMBLY_SURFACE-41) IS FINER 
             THAN THE MAIN SURFACE.  THE ANALYSIS MAY RUN SLOWER, MAY YIELD 
             INACCURATE RESULTS, AND MAY REQUIRE MORE MEMORY IF THIS IS NOT THE 
             CASE.

 ***WARNING: FOR *TIE PAIR (ASSEMBLY_SURFACE-37-ASSEMBLY_SURFACE-41), 
             ADJUSTMENT WAS SPECIFIED BUT NO NODE WAS ADJUSTED MORE THAN THE 
             ADJUSTMENT DISTANCE = 2.22000E-16.
  *tie, name=ASSEMBLY_TIE-16, type=SURFACETOSURFACE

 ***WARNING: PLEASE MAKE SURE THAT THE MESH DENSITY OF THE SECONDARY SURFACE IN 
             THE TIE PAIR (ASSEMBLY_SURFACE-37,ASSEMBLY_SURFACE-42) IS FINER 
             THAN THE MAIN SURFACE.  THE ANALYSIS MAY RUN SLOWER, MAY YIELD 
             INACCURATE RESULTS, AND MAY REQUIRE MORE MEMORY IF THIS IS NOT THE 
             CASE.

 ***WARNING: FOR *TIE PAIR (ASSEMBLY_SURFACE-37-ASSEMBLY_SURFACE-42), 
             ADJUSTMENT WAS SPECIFIED BUT NO NODE WAS ADJUSTED MORE THAN THE 
             ADJUSTMENT DISTANCE = 2.22000E-16.
  *tie, name=ASSEMBLY_TIE-17, type=SURFACETOSURFACE

 ***WARNING: PLEASE MAKE SURE THAT THE MESH DENSITY OF THE SECONDARY SURFACE IN 
             THE TIE PAIR (ASSEMBLY_SURFACE-37,ASSEMBLY_SURFACE-43) IS FINER 
             THAN THE MAIN SURFACE.  THE ANALYSIS MAY RUN SLOWER, MAY YIELD 
             INACCURATE RESULTS, AND MAY REQUIRE MORE MEMORY IF THIS IS NOT THE 
             CASE.

 ***WARNING: FOR *TIE PAIR (ASSEMBLY_SURFACE-37-ASSEMBLY_SURFACE-43), 
             ADJUSTMENT WAS SPECIFIED BUT NO NODE WAS ADJUSTED MORE THAN THE 
             ADJUSTMENT DISTANCE = 2.22000E-16.
  *tie, name=ASSEMBLY_TIE-18, type=SURFACETOSURFACE

 ***WARNING: *TIE BETWEEN SURFACE PAIR 
             (ASSEMBLY_SURFACE-37,ASSEMBLY_SURFACE-44) IS REVERTED BACK TO TYPE 
             NODE-TO-SURFACE. THIS CASE MAY HAPPEN IF TYPE SURFACE-TO-SURFACE 
             CANNOT FIND NODES TO TIE TOGETHER OR IF DEFAULT 
             ACOUSTIC-STRUCTURAL TIE IS SPECIFIED INVOLVING SHELLS. PLEASE 
             CHECK THE SURFACE DEFINITIONS OR SPECIFY TYPE=SURFACE TO SURFACE 
             FOR ACOUSTIC-STRUCTURAL TIE.

 ***WARNING: FOR *TIE PAIR (ASSEMBLY_SURFACE-37-ASSEMBLY_SURFACE-44), 
             ADJUSTMENT WAS SPECIFIED BUT NO NODE WAS ADJUSTED MORE THAN THE 
             ADJUSTMENT DISTANCE = 2.22000E-16.
  *tie, name=ASSEMBLY_TIE-19, type=SURFACETOSURFACE

 ***WARNING: *TIE BETWEEN SURFACE PAIR 
             (ASSEMBLY_SURFACE-37,ASSEMBLY_SURFACE-45) IS REVERTED BACK TO TYPE 
             NODE-TO-SURFACE. THIS CASE MAY HAPPEN IF TYPE SURFACE-TO-SURFACE 
             CANNOT FIND NODES TO TIE TOGETHER OR IF DEFAULT 
             ACOUSTIC-STRUCTURAL TIE IS SPECIFIED INVOLVING SHELLS. PLEASE 
             CHECK THE SURFACE DEFINITIONS OR SPECIFY TYPE=SURFACE TO SURFACE 
             FOR ACOUSTIC-STRUCTURAL TIE.

 ***WARNING: FOR *TIE PAIR (ASSEMBLY_SURFACE-37-ASSEMBLY_SURFACE-45), 
             ADJUSTMENT WAS SPECIFIED BUT NO NODE WAS ADJUSTED MORE THAN THE 
             ADJUSTMENT DISTANCE = 2.22000E-16.
  *tie, name=ASSEMBLY_TIE-20, type=SURFACETOSURFACE

 ***WARNING: *TIE BETWEEN SURFACE PAIR 
             (ASSEMBLY_SURFACE-37,ASSEMBLY_SURFACE-46) IS REVERTED BACK TO TYPE 
             NODE-TO-SURFACE. THIS CASE MAY HAPPEN IF TYPE SURFACE-TO-SURFACE 
             CANNOT FIND NODES TO TIE TOGETHER OR IF DEFAULT 
             ACOUSTIC-STRUCTURAL TIE IS SPECIFIED INVOLVING SHELLS. PLEASE 
             CHECK THE SURFACE DEFINITIONS OR SPECIFY TYPE=SURFACE TO SURFACE 
             FOR ACOUSTIC-STRUCTURAL TIE.

 ***WARNING: FOR *TIE PAIR (ASSEMBLY_SURFACE-37-ASSEMBLY_SURFACE-46), 
             ADJUSTMENT WAS SPECIFIED BUT NO NODE WAS ADJUSTED MORE THAN THE 
             ADJUSTMENT DISTANCE = 2.22000E-16.
  *tie, name=ASSEMBLY_TIE-21, type=SURFACETOSURFACE

 ***WARNING: *TIE BETWEEN SURFACE PAIR 
             (ASSEMBLY_SURFACE-37,ASSEMBLY_SURFACE-47) IS REVERTED BACK TO TYPE 
             NODE-TO-SURFACE. THIS CASE MAY HAPPEN IF TYPE SURFACE-TO-SURFACE 
             CANNOT FIND NODES TO TIE TOGETHER OR IF DEFAULT 
             ACOUSTIC-STRUCTURAL TIE IS SPECIFIED INVOLVING SHELLS. PLEASE 
             CHECK THE SURFACE DEFINITIONS OR SPECIFY TYPE=SURFACE TO SURFACE 
             FOR ACOUSTIC-STRUCTURAL TIE.

 ***WARNING: FOR *TIE PAIR (ASSEMBLY_SURFACE-37-ASSEMBLY_SURFACE-47), 
             ADJUSTMENT WAS SPECIFIED BUT NO NODE WAS ADJUSTED MORE THAN THE 
             ADJUSTMENT DISTANCE = 2.22000E-16.
  *tie, name=ASSEMBLY_TIE-22, type=SURFACETOSURFACE

 ***WARNING: PLEASE MAKE SURE THAT THE MESH DENSITY OF THE SECONDARY SURFACE IN 
             THE TIE PAIR (ASSEMBLY_SURFACE-38,ASSEMBLY_SURFACE-48) IS FINER 
             THAN THE MAIN SURFACE.  THE ANALYSIS MAY RUN SLOWER, MAY YIELD 
             INACCURATE RESULTS, AND MAY REQUIRE MORE MEMORY IF THIS IS NOT THE 
             CASE.

 ***WARNING: FOR *TIE PAIR (ASSEMBLY_SURFACE-38-ASSEMBLY_SURFACE-48), 
             ADJUSTMENT WAS SPECIFIED BUT NO NODE WAS ADJUSTED MORE THAN THE 
             ADJUSTMENT DISTANCE = 2.22000E-16.
  *tie, name=ASSEMBLY_TIE-23, type=SURFACETOSURFACE

 ***WARNING: PLEASE MAKE SURE THAT THE MESH DENSITY OF THE SECONDARY SURFACE IN 
             THE TIE PAIR (ASSEMBLY_SURFACE-38,ASSEMBLY_SURFACE-49) IS FINER 
             THAN THE MAIN SURFACE.  THE ANALYSIS MAY RUN SLOWER, MAY YIELD 
             INACCURATE RESULTS, AND MAY REQUIRE MORE MEMORY IF THIS IS NOT THE 
             CASE.

 ***WARNING: FOR *TIE PAIR (ASSEMBLY_SURFACE-38-ASSEMBLY_SURFACE-49), 
             ADJUSTMENT WAS SPECIFIED BUT NO NODE WAS ADJUSTED MORE THAN THE 
             ADJUSTMENT DISTANCE = 2.22000E-16.
  *tie, name=ASSEMBLY_TIE-24, type=SURFACETOSURFACE

 ***WARNING: PLEASE MAKE SURE THAT THE MESH DENSITY OF THE SECONDARY SURFACE IN 
             THE TIE PAIR (ASSEMBLY_SURFACE-38,ASSEMBLY_SURFACE-50) IS FINER 
             THAN THE MAIN SURFACE.  THE ANALYSIS MAY RUN SLOWER, MAY YIELD 
             INACCURATE RESULTS, AND MAY REQUIRE MORE MEMORY IF THIS IS NOT THE 
             CASE.

 ***WARNING: FOR *TIE PAIR (ASSEMBLY_SURFACE-38-ASSEMBLY_SURFACE-50), 
             ADJUSTMENT WAS SPECIFIED BUT NO NODE WAS ADJUSTED MORE THAN THE 
             ADJUSTMENT DISTANCE = 2.22000E-16.
  *tie, name=ASSEMBLY_TIE-25, type=SURFACETOSURFACE

 ***WARNING: PLEASE MAKE SURE THAT THE MESH DENSITY OF THE SECONDARY SURFACE IN 
             THE TIE PAIR (ASSEMBLY_SURFACE-38,ASSEMBLY_SURFACE-51) IS FINER 
             THAN THE MAIN SURFACE.  THE ANALYSIS MAY RUN SLOWER, MAY YIELD 
             INACCURATE RESULTS, AND MAY REQUIRE MORE MEMORY IF THIS IS NOT THE 
             CASE.

 ***WARNING: FOR *TIE PAIR (ASSEMBLY_SURFACE-38-ASSEMBLY_SURFACE-51), 
             ADJUSTMENT WAS SPECIFIED BUT NO NODE WAS ADJUSTED MORE THAN THE 
             ADJUSTMENT DISTANCE = 2.22000E-16.
  *tie, name=ASSEMBLY_TIE-26, type=SURFACETOSURFACE

 ***WARNING: *TIE BETWEEN SURFACE PAIR 
             (ASSEMBLY_SURFACE-38,ASSEMBLY_SURFACE-52) IS REVERTED BACK TO TYPE 
             NODE-TO-SURFACE. THIS CASE MAY HAPPEN IF TYPE SURFACE-TO-SURFACE 
             CANNOT FIND NODES TO TIE TOGETHER OR IF DEFAULT 
             ACOUSTIC-STRUCTURAL TIE IS SPECIFIED INVOLVING SHELLS. PLEASE 
             CHECK THE SURFACE DEFINITIONS OR SPECIFY TYPE=SURFACE TO SURFACE 
             FOR ACOUSTIC-STRUCTURAL TIE.

 ***WARNING: FOR *TIE PAIR (ASSEMBLY_SURFACE-38-ASSEMBLY_SURFACE-52), 
             ADJUSTMENT WAS SPECIFIED BUT NO NODE WAS ADJUSTED MORE THAN THE 
             ADJUSTMENT DISTANCE = 2.22000E-16.
  *tie, name=ASSEMBLY_TIE-27, type=SURFACETOSURFACE

 ***WARNING: *TIE BETWEEN SURFACE PAIR 
             (ASSEMBLY_SURFACE-38,ASSEMBLY_SURFACE-53) IS REVERTED BACK TO TYPE 
             NODE-TO-SURFACE. THIS CASE MAY HAPPEN IF TYPE SURFACE-TO-SURFACE 
             CANNOT FIND NODES TO TIE TOGETHER OR IF DEFAULT 
             ACOUSTIC-STRUCTURAL TIE IS SPECIFIED INVOLVING SHELLS. PLEASE 
             CHECK THE SURFACE DEFINITIONS OR SPECIFY TYPE=SURFACE TO SURFACE 
             FOR ACOUSTIC-STRUCTURAL TIE.

 ***WARNING: FOR *TIE PAIR (ASSEMBLY_SURFACE-38-ASSEMBLY_SURFACE-53), 
             ADJUSTMENT WAS SPECIFIED BUT NO NODE WAS ADJUSTED MORE THAN THE 
             ADJUSTMENT DISTANCE = 2.22000E-16.
  *tie, name=ASSEMBLY_TIE-28, type=SURFACETOSURFACE

 ***WARNING: *TIE BETWEEN SURFACE PAIR 
             (ASSEMBLY_SURFACE-38,ASSEMBLY_SURFACE-54) IS REVERTED BACK TO TYPE 
             NODE-TO-SURFACE. THIS CASE MAY HAPPEN IF TYPE SURFACE-TO-SURFACE 
             CANNOT FIND NODES TO TIE TOGETHER OR IF DEFAULT 
             ACOUSTIC-STRUCTURAL TIE IS SPECIFIED INVOLVING SHELLS. PLEASE 
             CHECK THE SURFACE DEFINITIONS OR SPECIFY TYPE=SURFACE TO SURFACE 
             FOR ACOUSTIC-STRUCTURAL TIE.

 ***WARNING: FOR *TIE PAIR (ASSEMBLY_SURFACE-38-ASSEMBLY_SURFACE-54), 
             ADJUSTMENT WAS SPECIFIED BUT NO NODE WAS ADJUSTED MORE THAN THE 
             ADJUSTMENT DISTANCE = 2.22000E-16.
  *tie, name=ASSEMBLY_TIE-29, type=SURFACETOSURFACE

 ***WARNING: *TIE BETWEEN SURFACE PAIR 
             (ASSEMBLY_SURFACE-38,ASSEMBLY_SURFACE-55) IS REVERTED BACK TO TYPE 
             NODE-TO-SURFACE. THIS CASE MAY HAPPEN IF TYPE SURFACE-TO-SURFACE 
             CANNOT FIND NODES TO TIE TOGETHER OR IF DEFAULT 
             ACOUSTIC-STRUCTURAL TIE IS SPECIFIED INVOLVING SHELLS. PLEASE 
             CHECK THE SURFACE DEFINITIONS OR SPECIFY TYPE=SURFACE TO SURFACE 
             FOR ACOUSTIC-STRUCTURAL TIE.

 ***WARNING: FOR *TIE PAIR (ASSEMBLY_SURFACE-38-ASSEMBLY_SURFACE-55), 
             ADJUSTMENT WAS SPECIFIED BUT NO NODE WAS ADJUSTED MORE THAN THE 
             ADJUSTMENT DISTANCE = 2.22000E-16.
  *tie, name=ASSEMBLY_TIE, type=SURFACETOSURFACE
  *tie, name=ASSEMBLY_TIE-1, type=SURFACETOSURFACE
  *tie, name=ASSEMBLY_TIE-2, type=SURFACETOSURFACE
  *tie, name=ASSEMBLY_TIE-3, type=SURFACETOSURFACE
  *tie, name=ASSEMBLY_TIE-4, type=SURFACETOSURFACE
  *tie, name=ASSEMBLY_TIE-5, type=SURFACETOSURFACE
  *tie, name=ASSEMBLY_TIE-6, type=SURFACETOSURFACE
  *tie, name=ASSEMBLY_TIE-7, type=SURFACETOSURFACE
  *tie, name=ASSEMBLY_TIE-8, type=SURFACETOSURFACE
  *tie, name=ASSEMBLY_TIE-9, type=SURFACETOSURFACE
  *tie, name=ASSEMBLY_TIE-10, type=SURFACETOSURFACE
  *tie, name=ASSEMBLY_TIE-11, type=SURFACETOSURFACE
  *tie, name=ASSEMBLY_TIE-12, type=SURFACETOSURFACE
  *tie, name=ASSEMBLY_TIE-13, type=SURFACETOSURFACE
  *tie, name=ASSEMBLY_TIE-14, type=SURFACETOSURFACE
  *tie, name=ASSEMBLY_TIE-15, type=SURFACETOSURFACE
  *tie, name=ASSEMBLY_TIE-16, type=SURFACETOSURFACE
  *tie, name=ASSEMBLY_TIE-17, type=SURFACETOSURFACE
  *tie, name=ASSEMBLY_TIE-18, type=SURFACETOSURFACE
  *tie, name=ASSEMBLY_TIE-19, type=SURFACETOSURFACE
  *tie, name=ASSEMBLY_TIE-20, type=SURFACETOSURFACE
  *tie, name=ASSEMBLY_TIE-21, type=SURFACETOSURFACE
  *tie, name=ASSEMBLY_TIE-22, type=SURFACETOSURFACE
  *tie, name=ASSEMBLY_TIE-23, type=SURFACETOSURFACE
  *tie, name=ASSEMBLY_TIE-24, type=SURFACETOSURFACE
  *tie, name=ASSEMBLY_TIE-25, type=SURFACETOSURFACE
  *tie, name=ASSEMBLY_TIE-26, type=SURFACETOSURFACE
  *tie, name=ASSEMBLY_TIE-27, type=SURFACETOSURFACE
  *tie, name=ASSEMBLY_TIE-28, type=SURFACETOSURFACE
  *tie, name=ASSEMBLY_TIE-29, type=SURFACETOSURFACE
  *tie, name=ASSEMBLY_TIE, type=SURFACETOSURFACE
  *tie, name=ASSEMBLY_TIE-1, type=SURFACETOSURFACE
  *tie, name=ASSEMBLY_TIE-2, type=SURFACETOSURFACE
  *tie, name=ASSEMBLY_TIE-3, type=SURFACETOSURFACE
  *tie, name=ASSEMBLY_TIE-4, type=SURFACETOSURFACE
  *tie, name=ASSEMBLY_TIE-5, type=SURFACETOSURFACE
  *tie, name=ASSEMBLY_TIE-6, type=SURFACETOSURFACE
  *tie, name=ASSEMBLY_TIE-7, type=SURFACETOSURFACE
  *tie, name=ASSEMBLY_TIE-8, type=SURFACETOSURFACE
  *tie, name=ASSEMBLY_TIE-9, type=SURFACETOSURFACE
  *tie, name=ASSEMBLY_TIE-10, type=SURFACETOSURFACE
  *tie, name=ASSEMBLY_TIE-11, type=SURFACETOSURFACE
  *tie, name=ASSEMBLY_TIE-12, type=SURFACETOSURFACE
  *tie, name=ASSEMBLY_TIE-13, type=SURFACETOSURFACE
  *tie, name=ASSEMBLY_TIE-14, type=SURFACETOSURFACE

 ***WARNING: SECONDARY NODE 1 INSTANCE UPPER_SKIN-INSTANCE WILL NOT BE TIED TO 
             THE MAIN SURFACE ASSEMBLY_SURFACE-40. THE DISTANCE FROM THE MAIN 
             SURFACE IS GREATER THAN THE POSITION TOLERANCE VALUE.

 ***WARNING: SECONDARY NODE 2 INSTANCE UPPER_SKIN-INSTANCE WILL NOT BE TIED TO 
             THE MAIN SURFACE ASSEMBLY_SURFACE-40. THE DISTANCE FROM THE MAIN 
             SURFACE IS GREATER THAN THE POSITION TOLERANCE VALUE.

 ***WARNING: SECONDARY NODE 3 INSTANCE UPPER_SKIN-INSTANCE WILL NOT BE TIED TO 
             THE MAIN SURFACE ASSEMBLY_SURFACE-40. THE DISTANCE FROM THE MAIN 
             SURFACE IS GREATER THAN THE POSITION TOLERANCE VALUE.

 ***WARNING: SECONDARY NODE 4 INSTANCE UPPER_SKIN-INSTANCE WILL NOT BE TIED TO 
             THE MAIN SURFACE ASSEMBLY_SURFACE-40. THE DISTANCE FROM THE MAIN 
             SURFACE IS GREATER THAN THE POSITION TOLERANCE VALUE.

 ***WARNING: SECONDARY NODE 9 INSTANCE UPPER_SKIN-INSTANCE WILL NOT BE TIED TO 
             THE MAIN SURFACE ASSEMBLY_SURFACE-40. THE DISTANCE FROM THE MAIN 
             SURFACE IS GREATER THAN THE POSITION TOLERANCE VALUE.

 ***WARNING: SECONDARY NODE 10 INSTANCE UPPER_SKIN-INSTANCE WILL NOT BE TIED TO 
             THE MAIN SURFACE ASSEMBLY_SURFACE-40. THE DISTANCE FROM THE MAIN 
             SURFACE IS GREATER THAN THE POSITION TOLERANCE VALUE.

 ***WARNING: SECONDARY NODE 13 INSTANCE UPPER_SKIN-INSTANCE WILL NOT BE TIED TO 
             THE MAIN SURFACE ASSEMBLY_SURFACE-40. THE DISTANCE FROM THE MAIN 
             SURFACE IS GREATER THAN THE POSITION TOLERANCE VALUE.

 ***WARNING: SECONDARY NODE 14 INSTANCE UPPER_SKIN-INSTANCE WILL NOT BE TIED TO 
             THE MAIN SURFACE ASSEMBLY_SURFACE-40. THE DISTANCE FROM THE MAIN 
             SURFACE IS GREATER THAN THE POSITION TOLERANCE VALUE.

 ***WARNING: SECONDARY NODE 15 INSTANCE UPPER_SKIN-INSTANCE WILL NOT BE TIED TO 
             THE MAIN SURFACE ASSEMBLY_SURFACE-40. THE DISTANCE FROM THE MAIN 
             SURFACE IS GREATER THAN THE POSITION TOLERANCE VALUE.

 ***WARNING: SECONDARY NODE 16 INSTANCE UPPER_SKIN-INSTANCE WILL NOT BE TIED TO 
             THE MAIN SURFACE ASSEMBLY_SURFACE-40. THE DISTANCE FROM THE MAIN 
             SURFACE IS GREATER THAN THE POSITION TOLERANCE VALUE.

 ***WARNING: SECONDARY NODE 17 INSTANCE UPPER_SKIN-INSTANCE WILL NOT BE TIED TO 
             THE MAIN SURFACE ASSEMBLY_SURFACE-40. THE DISTANCE FROM THE MAIN 
             SURFACE IS GREATER THAN THE POSITION TOLERANCE VALUE.

 ***NOTE: THE ABOVE WARNING MESSAGE IS BEING SUPPRESSED DUE TO EXCESSIVE 
          REPORTING.
  *tie, name=ASSEMBLY_TIE-15, type=SURFACETOSURFACE

 ***WARNING: SECONDARY NODE 1 INSTANCE UPPER_SKIN-INSTANCE WILL NOT BE TIED TO 
             THE MAIN SURFACE ASSEMBLY_SURFACE-41. THE DISTANCE FROM THE MAIN 
             SURFACE IS GREATER THAN THE POSITION TOLERANCE VALUE.

 ***WARNING: SECONDARY NODE 2 INSTANCE UPPER_SKIN-INSTANCE WILL NOT BE TIED TO 
             THE MAIN SURFACE ASSEMBLY_SURFACE-41. THE DISTANCE FROM THE MAIN 
             SURFACE IS GREATER THAN THE POSITION TOLERANCE VALUE.

 ***WARNING: SECONDARY NODE 3 INSTANCE UPPER_SKIN-INSTANCE WILL NOT BE TIED TO 
             THE MAIN SURFACE ASSEMBLY_SURFACE-41. THE DISTANCE FROM THE MAIN 
             SURFACE IS GREATER THAN THE POSITION TOLERANCE VALUE.

 ***WARNING: SECONDARY NODE 4 INSTANCE UPPER_SKIN-INSTANCE WILL NOT BE TIED TO 
             THE MAIN SURFACE ASSEMBLY_SURFACE-41. THE DISTANCE FROM THE MAIN 
             SURFACE IS GREATER THAN THE POSITION TOLERANCE VALUE.

 ***WARNING: SECONDARY NODE 9 INSTANCE UPPER_SKIN-INSTANCE WILL NOT BE TIED TO 
             THE MAIN SURFACE ASSEMBLY_SURFACE-41. THE DISTANCE FROM THE MAIN 
             SURFACE IS GREATER THAN THE POSITION TOLERANCE VALUE.

 ***WARNING: SECONDARY NODE 10 INSTANCE UPPER_SKIN-INSTANCE WILL NOT BE TIED TO 
             THE MAIN SURFACE ASSEMBLY_SURFACE-41. THE DISTANCE FROM THE MAIN 
             SURFACE IS GREATER THAN THE POSITION TOLERANCE VALUE.

 ***WARNING: SECONDARY NODE 13 INSTANCE UPPER_SKIN-INSTANCE WILL NOT BE TIED TO 
             THE MAIN SURFACE ASSEMBLY_SURFACE-41. THE DISTANCE FROM THE MAIN 
             SURFACE IS GREATER THAN THE POSITION TOLERANCE VALUE.

 ***WARNING: SECONDARY NODE 14 INSTANCE UPPER_SKIN-INSTANCE WILL NOT BE TIED TO 
             THE MAIN SURFACE ASSEMBLY_SURFACE-41. THE DISTANCE FROM THE MAIN 
             SURFACE IS GREATER THAN THE POSITION TOLERANCE VALUE.

 ***WARNING: SECONDARY NODE 15 INSTANCE UPPER_SKIN-INSTANCE WILL NOT BE TIED TO 
             THE MAIN SURFACE ASSEMBLY_SURFACE-41. THE DISTANCE FROM THE MAIN 
             SURFACE IS GREATER THAN THE POSITION TOLERANCE VALUE.

 ***WARNING: SECONDARY NODE 16 INSTANCE UPPER_SKIN-INSTANCE WILL NOT BE TIED TO 
             THE MAIN SURFACE ASSEMBLY_SURFACE-41. THE DISTANCE FROM THE MAIN 
             SURFACE IS GREATER THAN THE POSITION TOLERANCE VALUE.

 ***WARNING: SECONDARY NODE 17 INSTANCE UPPER_SKIN-INSTANCE WILL NOT BE TIED TO 
             THE MAIN SURFACE ASSEMBLY_SURFACE-41. THE DISTANCE FROM THE MAIN 
             SURFACE IS GREATER THAN THE POSITION TOLERANCE VALUE.

 ***NOTE: THE ABOVE WARNING MESSAGE IS BEING SUPPRESSED DUE TO EXCESSIVE 
          REPORTING.
  *tie, name=ASSEMBLY_TIE-16, type=SURFACETOSURFACE

 ***WARNING: SECONDARY NODE 1 INSTANCE UPPER_SKIN-INSTANCE WILL NOT BE TIED TO 
             THE MAIN SURFACE ASSEMBLY_SURFACE-42. THE DISTANCE FROM THE MAIN 
             SURFACE IS GREATER THAN THE POSITION TOLERANCE VALUE.

 ***WARNING: SECONDARY NODE 2 INSTANCE UPPER_SKIN-INSTANCE WILL NOT BE TIED TO 
             THE MAIN SURFACE ASSEMBLY_SURFACE-42. THE DISTANCE FROM THE MAIN 
             SURFACE IS GREATER THAN THE POSITION TOLERANCE VALUE.

 ***WARNING: SECONDARY NODE 3 INSTANCE UPPER_SKIN-INSTANCE WILL NOT BE TIED TO 
             THE MAIN SURFACE ASSEMBLY_SURFACE-42. THE DISTANCE FROM THE MAIN 
             SURFACE IS GREATER THAN THE POSITION TOLERANCE VALUE.

 ***WARNING: SECONDARY NODE 4 INSTANCE UPPER_SKIN-INSTANCE WILL NOT BE TIED TO 
             THE MAIN SURFACE ASSEMBLY_SURFACE-42. THE DISTANCE FROM THE MAIN 
             SURFACE IS GREATER THAN THE POSITION TOLERANCE VALUE.

 ***WARNING: SECONDARY NODE 9 INSTANCE UPPER_SKIN-INSTANCE WILL NOT BE TIED TO 
             THE MAIN SURFACE ASSEMBLY_SURFACE-42. THE DISTANCE FROM THE MAIN 
             SURFACE IS GREATER THAN THE POSITION TOLERANCE VALUE.

 ***WARNING: SECONDARY NODE 10 INSTANCE UPPER_SKIN-INSTANCE WILL NOT BE TIED TO 
             THE MAIN SURFACE ASSEMBLY_SURFACE-42. THE DISTANCE FROM THE MAIN 
             SURFACE IS GREATER THAN THE POSITION TOLERANCE VALUE.

 ***WARNING: SECONDARY NODE 13 INSTANCE UPPER_SKIN-INSTANCE WILL NOT BE TIED TO 
             THE MAIN SURFACE ASSEMBLY_SURFACE-42. THE DISTANCE FROM THE MAIN 
             SURFACE IS GREATER THAN THE POSITION TOLERANCE VALUE.

 ***WARNING: SECONDARY NODE 14 INSTANCE UPPER_SKIN-INSTANCE WILL NOT BE TIED TO 
             THE MAIN SURFACE ASSEMBLY_SURFACE-42. THE DISTANCE FROM THE MAIN 
             SURFACE IS GREATER THAN THE POSITION TOLERANCE VALUE.

 ***WARNING: SECONDARY NODE 15 INSTANCE UPPER_SKIN-INSTANCE WILL NOT BE TIED TO 
             THE MAIN SURFACE ASSEMBLY_SURFACE-42. THE DISTANCE FROM THE MAIN 
             SURFACE IS GREATER THAN THE POSITION TOLERANCE VALUE.

 ***WARNING: SECONDARY NODE 16 INSTANCE UPPER_SKIN-INSTANCE WILL NOT BE TIED TO 
             THE MAIN SURFACE ASSEMBLY_SURFACE-42. THE DISTANCE FROM THE MAIN 
             SURFACE IS GREATER THAN THE POSITION TOLERANCE VALUE.

 ***WARNING: SECONDARY NODE 17 INSTANCE UPPER_SKIN-INSTANCE WILL NOT BE TIED TO 
             THE MAIN SURFACE ASSEMBLY_SURFACE-42. THE DISTANCE FROM THE MAIN 
             SURFACE IS GREATER THAN THE POSITION TOLERANCE VALUE.

 ***NOTE: THE ABOVE WARNING MESSAGE IS BEING SUPPRESSED DUE TO EXCESSIVE 
          REPORTING.
  *tie, name=ASSEMBLY_TIE-17, type=SURFACETOSURFACE

 ***WARNING: SECONDARY NODE 1 INSTANCE UPPER_SKIN-INSTANCE WILL NOT BE TIED TO 
             THE MAIN SURFACE ASSEMBLY_SURFACE-43. THE DISTANCE FROM THE MAIN 
             SURFACE IS GREATER THAN THE POSITION TOLERANCE VALUE.

 ***WARNING: SECONDARY NODE 2 INSTANCE UPPER_SKIN-INSTANCE WILL NOT BE TIED TO 
             THE MAIN SURFACE ASSEMBLY_SURFACE-43. THE DISTANCE FROM THE MAIN 
             SURFACE IS GREATER THAN THE POSITION TOLERANCE VALUE.

 ***WARNING: SECONDARY NODE 3 INSTANCE UPPER_SKIN-INSTANCE WILL NOT BE TIED TO 
             THE MAIN SURFACE ASSEMBLY_SURFACE-43. THE DISTANCE FROM THE MAIN 
             SURFACE IS GREATER THAN THE POSITION TOLERANCE VALUE.

 ***WARNING: SECONDARY NODE 4 INSTANCE UPPER_SKIN-INSTANCE WILL NOT BE TIED TO 
             THE MAIN SURFACE ASSEMBLY_SURFACE-43. THE DISTANCE FROM THE MAIN 
             SURFACE IS GREATER THAN THE POSITION TOLERANCE VALUE.

 ***WARNING: SECONDARY NODE 9 INSTANCE UPPER_SKIN-INSTANCE WILL NOT BE TIED TO 
             THE MAIN SURFACE ASSEMBLY_SURFACE-43. THE DISTANCE FROM THE MAIN 
             SURFACE IS GREATER THAN THE POSITION TOLERANCE VALUE.

 ***WARNING: SECONDARY NODE 10 INSTANCE UPPER_SKIN-INSTANCE WILL NOT BE TIED TO 
             THE MAIN SURFACE ASSEMBLY_SURFACE-43. THE DISTANCE FROM THE MAIN 
             SURFACE IS GREATER THAN THE POSITION TOLERANCE VALUE.

 ***WARNING: SECONDARY NODE 13 INSTANCE UPPER_SKIN-INSTANCE WILL NOT BE TIED TO 
             THE MAIN SURFACE ASSEMBLY_SURFACE-43. THE DISTANCE FROM THE MAIN 
             SURFACE IS GREATER THAN THE POSITION TOLERANCE VALUE.

 ***WARNING: SECONDARY NODE 14 INSTANCE UPPER_SKIN-INSTANCE WILL NOT BE TIED TO 
             THE MAIN SURFACE ASSEMBLY_SURFACE-43. THE DISTANCE FROM THE MAIN 
             SURFACE IS GREATER THAN THE POSITION TOLERANCE VALUE.

 ***WARNING: SECONDARY NODE 15 INSTANCE UPPER_SKIN-INSTANCE WILL NOT BE TIED TO 
             THE MAIN SURFACE ASSEMBLY_SURFACE-43. THE DISTANCE FROM THE MAIN 
             SURFACE IS GREATER THAN THE POSITION TOLERANCE VALUE.

 ***WARNING: SECONDARY NODE 16 INSTANCE UPPER_SKIN-INSTANCE WILL NOT BE TIED TO 
             THE MAIN SURFACE ASSEMBLY_SURFACE-43. THE DISTANCE FROM THE MAIN 
             SURFACE IS GREATER THAN THE POSITION TOLERANCE VALUE.

 ***WARNING: SECONDARY NODE 17 INSTANCE UPPER_SKIN-INSTANCE WILL NOT BE TIED TO 
             THE MAIN SURFACE ASSEMBLY_SURFACE-43. THE DISTANCE FROM THE MAIN 
             SURFACE IS GREATER THAN THE POSITION TOLERANCE VALUE.

 ***NOTE: THE ABOVE WARNING MESSAGE IS BEING SUPPRESSED DUE TO EXCESSIVE 
          REPORTING.
  *tie, name=ASSEMBLY_TIE-18, type=SURFACETOSURFACE

 ***WARNING: SECONDARY NODE 1 INSTANCE UPPER_SKIN-INSTANCE WILL NOT BE TIED TO 
             THE MAIN SURFACE ASSEMBLY_SURFACE-44. THE DISTANCE FROM THE MAIN 
             SURFACE IS GREATER THAN THE POSITION TOLERANCE VALUE.

 ***WARNING: SECONDARY NODE 2 INSTANCE UPPER_SKIN-INSTANCE WILL NOT BE TIED TO 
             THE MAIN SURFACE ASSEMBLY_SURFACE-44. THE DISTANCE FROM THE MAIN 
             SURFACE IS GREATER THAN THE POSITION TOLERANCE VALUE.

 ***WARNING: SECONDARY NODE 3 INSTANCE UPPER_SKIN-INSTANCE WILL NOT BE TIED TO 
             THE MAIN SURFACE ASSEMBLY_SURFACE-44. THE DISTANCE FROM THE MAIN 
             SURFACE IS GREATER THAN THE POSITION TOLERANCE VALUE.

 ***WARNING: SECONDARY NODE 4 INSTANCE UPPER_SKIN-INSTANCE WILL NOT BE TIED TO 
             THE MAIN SURFACE ASSEMBLY_SURFACE-44. THE DISTANCE FROM THE MAIN 
             SURFACE IS GREATER THAN THE POSITION TOLERANCE VALUE.

 ***WARNING: SECONDARY NODE 9 INSTANCE UPPER_SKIN-INSTANCE WILL NOT BE TIED TO 
             THE MAIN SURFACE ASSEMBLY_SURFACE-44. THE DISTANCE FROM THE MAIN 
             SURFACE IS GREATER THAN THE POSITION TOLERANCE VALUE.

 ***WARNING: SECONDARY NODE 10 INSTANCE UPPER_SKIN-INSTANCE WILL NOT BE TIED TO 
             THE MAIN SURFACE ASSEMBLY_SURFACE-44. THE DISTANCE FROM THE MAIN 
             SURFACE IS GREATER THAN THE POSITION TOLERANCE VALUE.

 ***WARNING: SECONDARY NODE 13 INSTANCE UPPER_SKIN-INSTANCE WILL NOT BE TIED TO 
             THE MAIN SURFACE ASSEMBLY_SURFACE-44. THE DISTANCE FROM THE MAIN 
             SURFACE IS GREATER THAN THE POSITION TOLERANCE VALUE.

 ***WARNING: SECONDARY NODE 14 INSTANCE UPPER_SKIN-INSTANCE WILL NOT BE TIED TO 
             THE MAIN SURFACE ASSEMBLY_SURFACE-44. THE DISTANCE FROM THE MAIN 
             SURFACE IS GREATER THAN THE POSITION TOLERANCE VALUE.

 ***WARNING: SECONDARY NODE 15 INSTANCE UPPER_SKIN-INSTANCE WILL NOT BE TIED TO 
             THE MAIN SURFACE ASSEMBLY_SURFACE-44. THE DISTANCE FROM THE MAIN 
             SURFACE IS GREATER THAN THE POSITION TOLERANCE VALUE.

 ***WARNING: SECONDARY NODE 16 INSTANCE UPPER_SKIN-INSTANCE WILL NOT BE TIED TO 
             THE MAIN SURFACE ASSEMBLY_SURFACE-44. THE DISTANCE FROM THE MAIN 
             SURFACE IS GREATER THAN THE POSITION TOLERANCE VALUE.

 ***WARNING: SECONDARY NODE 17 INSTANCE UPPER_SKIN-INSTANCE WILL NOT BE TIED TO 
             THE MAIN SURFACE ASSEMBLY_SURFACE-44. THE DISTANCE FROM THE MAIN 
             SURFACE IS GREATER THAN THE POSITION TOLERANCE VALUE.

 ***NOTE: THE ABOVE WARNING MESSAGE IS BEING SUPPRESSED DUE TO EXCESSIVE 
          REPORTING.
  *tie, name=ASSEMBLY_TIE-19, type=SURFACETOSURFACE

 ***WARNING: SECONDARY NODE 1 INSTANCE UPPER_SKIN-INSTANCE WILL NOT BE TIED TO 
             THE MAIN SURFACE ASSEMBLY_SURFACE-45. THE DISTANCE FROM THE MAIN 
             SURFACE IS GREATER THAN THE POSITION TOLERANCE VALUE.

 ***WARNING: SECONDARY NODE 2 INSTANCE UPPER_SKIN-INSTANCE WILL NOT BE TIED TO 
             THE MAIN SURFACE ASSEMBLY_SURFACE-45. THE DISTANCE FROM THE MAIN 
             SURFACE IS GREATER THAN THE POSITION TOLERANCE VALUE.

 ***WARNING: SECONDARY NODE 3 INSTANCE UPPER_SKIN-INSTANCE WILL NOT BE TIED TO 
             THE MAIN SURFACE ASSEMBLY_SURFACE-45. THE DISTANCE FROM THE MAIN 
             SURFACE IS GREATER THAN THE POSITION TOLERANCE VALUE.

 ***WARNING: SECONDARY NODE 4 INSTANCE UPPER_SKIN-INSTANCE WILL NOT BE TIED TO 
             THE MAIN SURFACE ASSEMBLY_SURFACE-45. THE DISTANCE FROM THE MAIN 
             SURFACE IS GREATER THAN THE POSITION TOLERANCE VALUE.

 ***WARNING: SECONDARY NODE 9 INSTANCE UPPER_SKIN-INSTANCE WILL NOT BE TIED TO 
             THE MAIN SURFACE ASSEMBLY_SURFACE-45. THE DISTANCE FROM THE MAIN 
             SURFACE IS GREATER THAN THE POSITION TOLERANCE VALUE.

 ***WARNING: SECONDARY NODE 10 INSTANCE UPPER_SKIN-INSTANCE WILL NOT BE TIED TO 
             THE MAIN SURFACE ASSEMBLY_SURFACE-45. THE DISTANCE FROM THE MAIN 
             SURFACE IS GREATER THAN THE POSITION TOLERANCE VALUE.

 ***WARNING: SECONDARY NODE 13 INSTANCE UPPER_SKIN-INSTANCE WILL NOT BE TIED TO 
             THE MAIN SURFACE ASSEMBLY_SURFACE-45. THE DISTANCE FROM THE MAIN 
             SURFACE IS GREATER THAN THE POSITION TOLERANCE VALUE.

 ***WARNING: SECONDARY NODE 14 INSTANCE UPPER_SKIN-INSTANCE WILL NOT BE TIED TO 
             THE MAIN SURFACE ASSEMBLY_SURFACE-45. THE DISTANCE FROM THE MAIN 
             SURFACE IS GREATER THAN THE POSITION TOLERANCE VALUE.

 ***WARNING: SECONDARY NODE 15 INSTANCE UPPER_SKIN-INSTANCE WILL NOT BE TIED TO 
             THE MAIN SURFACE ASSEMBLY_SURFACE-45. THE DISTANCE FROM THE MAIN 
             SURFACE IS GREATER THAN THE POSITION TOLERANCE VALUE.

 ***WARNING: SECONDARY NODE 16 INSTANCE UPPER_SKIN-INSTANCE WILL NOT BE TIED TO 
             THE MAIN SURFACE ASSEMBLY_SURFACE-45. THE DISTANCE FROM THE MAIN 
             SURFACE IS GREATER THAN THE POSITION TOLERANCE VALUE.

 ***WARNING: SECONDARY NODE 17 INSTANCE UPPER_SKIN-INSTANCE WILL NOT BE TIED TO 
             THE MAIN SURFACE ASSEMBLY_SURFACE-45. THE DISTANCE FROM THE MAIN 
             SURFACE IS GREATER THAN THE POSITION TOLERANCE VALUE.

 ***NOTE: THE ABOVE WARNING MESSAGE IS BEING SUPPRESSED DUE TO EXCESSIVE 
          REPORTING.
  *tie, name=ASSEMBLY_TIE-20, type=SURFACETOSURFACE

 ***WARNING: SECONDARY NODE 1 INSTANCE UPPER_SKIN-INSTANCE WILL NOT BE TIED TO 
             THE MAIN SURFACE ASSEMBLY_SURFACE-46. THE DISTANCE FROM THE MAIN 
             SURFACE IS GREATER THAN THE POSITION TOLERANCE VALUE.

 ***WARNING: SECONDARY NODE 2 INSTANCE UPPER_SKIN-INSTANCE WILL NOT BE TIED TO 
             THE MAIN SURFACE ASSEMBLY_SURFACE-46. THE DISTANCE FROM THE MAIN 
             SURFACE IS GREATER THAN THE POSITION TOLERANCE VALUE.

 ***WARNING: SECONDARY NODE 3 INSTANCE UPPER_SKIN-INSTANCE WILL NOT BE TIED TO 
             THE MAIN SURFACE ASSEMBLY_SURFACE-46. THE DISTANCE FROM THE MAIN 
             SURFACE IS GREATER THAN THE POSITION TOLERANCE VALUE.

 ***WARNING: SECONDARY NODE 4 INSTANCE UPPER_SKIN-INSTANCE WILL NOT BE TIED TO 
             THE MAIN SURFACE ASSEMBLY_SURFACE-46. THE DISTANCE FROM THE MAIN 
             SURFACE IS GREATER THAN THE POSITION TOLERANCE VALUE.

 ***WARNING: SECONDARY NODE 9 INSTANCE UPPER_SKIN-INSTANCE WILL NOT BE TIED TO 
             THE MAIN SURFACE ASSEMBLY_SURFACE-46. THE DISTANCE FROM THE MAIN 
             SURFACE IS GREATER THAN THE POSITION TOLERANCE VALUE.

 ***WARNING: SECONDARY NODE 10 INSTANCE UPPER_SKIN-INSTANCE WILL NOT BE TIED TO 
             THE MAIN SURFACE ASSEMBLY_SURFACE-46. THE DISTANCE FROM THE MAIN 
             SURFACE IS GREATER THAN THE POSITION TOLERANCE VALUE.

 ***WARNING: SECONDARY NODE 13 INSTANCE UPPER_SKIN-INSTANCE WILL NOT BE TIED TO 
             THE MAIN SURFACE ASSEMBLY_SURFACE-46. THE DISTANCE FROM THE MAIN 
             SURFACE IS GREATER THAN THE POSITION TOLERANCE VALUE.

 ***WARNING: SECONDARY NODE 14 INSTANCE UPPER_SKIN-INSTANCE WILL NOT BE TIED TO 
             THE MAIN SURFACE ASSEMBLY_SURFACE-46. THE DISTANCE FROM THE MAIN 
             SURFACE IS GREATER THAN THE POSITION TOLERANCE VALUE.

 ***WARNING: SECONDARY NODE 15 INSTANCE UPPER_SKIN-INSTANCE WILL NOT BE TIED TO 
             THE MAIN SURFACE ASSEMBLY_SURFACE-46. THE DISTANCE FROM THE MAIN 
             SURFACE IS GREATER THAN THE POSITION TOLERANCE VALUE.

 ***WARNING: SECONDARY NODE 16 INSTANCE UPPER_SKIN-INSTANCE WILL NOT BE TIED TO 
             THE MAIN SURFACE ASSEMBLY_SURFACE-46. THE DISTANCE FROM THE MAIN 
             SURFACE IS GREATER THAN THE POSITION TOLERANCE VALUE.

 ***WARNING: SECONDARY NODE 17 INSTANCE UPPER_SKIN-INSTANCE WILL NOT BE TIED TO 
             THE MAIN SURFACE ASSEMBLY_SURFACE-46. THE DISTANCE FROM THE MAIN 
             SURFACE IS GREATER THAN THE POSITION TOLERANCE VALUE.

 ***NOTE: THE ABOVE WARNING MESSAGE IS BEING SUPPRESSED DUE TO EXCESSIVE 
          REPORTING.
  *tie, name=ASSEMBLY_TIE-21, type=SURFACETOSURFACE

 ***WARNING: SECONDARY NODE 1 INSTANCE UPPER_SKIN-INSTANCE WILL NOT BE TIED TO 
             THE MAIN SURFACE ASSEMBLY_SURFACE-47. THE DISTANCE FROM THE MAIN 
             SURFACE IS GREATER THAN THE POSITION TOLERANCE VALUE.

 ***WARNING: SECONDARY NODE 2 INSTANCE UPPER_SKIN-INSTANCE WILL NOT BE TIED TO 
             THE MAIN SURFACE ASSEMBLY_SURFACE-47. THE DISTANCE FROM THE MAIN 
             SURFACE IS GREATER THAN THE POSITION TOLERANCE VALUE.

 ***WARNING: SECONDARY NODE 3 INSTANCE UPPER_SKIN-INSTANCE WILL NOT BE TIED TO 
             THE MAIN SURFACE ASSEMBLY_SURFACE-47. THE DISTANCE FROM THE MAIN 
             SURFACE IS GREATER THAN THE POSITION TOLERANCE VALUE.

 ***WARNING: SECONDARY NODE 4 INSTANCE UPPER_SKIN-INSTANCE WILL NOT BE TIED TO 
             THE MAIN SURFACE ASSEMBLY_SURFACE-47. THE DISTANCE FROM THE MAIN 
             SURFACE IS GREATER THAN THE POSITION TOLERANCE VALUE.

 ***WARNING: SECONDARY NODE 9 INSTANCE UPPER_SKIN-INSTANCE WILL NOT BE TIED TO 
             THE MAIN SURFACE ASSEMBLY_SURFACE-47. THE DISTANCE FROM THE MAIN 
             SURFACE IS GREATER THAN THE POSITION TOLERANCE VALUE.

 ***WARNING: SECONDARY NODE 10 INSTANCE UPPER_SKIN-INSTANCE WILL NOT BE TIED TO 
             THE MAIN SURFACE ASSEMBLY_SURFACE-47. THE DISTANCE FROM THE MAIN 
             SURFACE IS GREATER THAN THE POSITION TOLERANCE VALUE.

 ***WARNING: SECONDARY NODE 13 INSTANCE UPPER_SKIN-INSTANCE WILL NOT BE TIED TO 
             THE MAIN SURFACE ASSEMBLY_SURFACE-47. THE DISTANCE FROM THE MAIN 
             SURFACE IS GREATER THAN THE POSITION TOLERANCE VALUE.

 ***WARNING: SECONDARY NODE 14 INSTANCE UPPER_SKIN-INSTANCE WILL NOT BE TIED TO 
             THE MAIN SURFACE ASSEMBLY_SURFACE-47. THE DISTANCE FROM THE MAIN 
             SURFACE IS GREATER THAN THE POSITION TOLERANCE VALUE.

 ***WARNING: SECONDARY NODE 15 INSTANCE UPPER_SKIN-INSTANCE WILL NOT BE TIED TO 
             THE MAIN SURFACE ASSEMBLY_SURFACE-47. THE DISTANCE FROM THE MAIN 
             SURFACE IS GREATER THAN THE POSITION TOLERANCE VALUE.

 ***WARNING: SECONDARY NODE 16 INSTANCE UPPER_SKIN-INSTANCE WILL NOT BE TIED TO 
             THE MAIN SURFACE ASSEMBLY_SURFACE-47. THE DISTANCE FROM THE MAIN 
             SURFACE IS GREATER THAN THE POSITION TOLERANCE VALUE.

 ***WARNING: SECONDARY NODE 17 INSTANCE UPPER_SKIN-INSTANCE WILL NOT BE TIED TO 
             THE MAIN SURFACE ASSEMBLY_SURFACE-47. THE DISTANCE FROM THE MAIN 
             SURFACE IS GREATER THAN THE POSITION TOLERANCE VALUE.

 ***NOTE: THE ABOVE WARNING MESSAGE IS BEING SUPPRESSED DUE TO EXCESSIVE 
          REPORTING.
  *tie, name=ASSEMBLY_TIE-22, type=SURFACETOSURFACE

 ***WARNING: SECONDARY NODE 1 INSTANCE LOWER_SKIN-INSTANCE WILL NOT BE TIED TO 
             THE MAIN SURFACE ASSEMBLY_SURFACE-48. THE DISTANCE FROM THE MAIN 
             SURFACE IS GREATER THAN THE POSITION TOLERANCE VALUE.

 ***WARNING: SECONDARY NODE 2 INSTANCE LOWER_SKIN-INSTANCE WILL NOT BE TIED TO 
             THE MAIN SURFACE ASSEMBLY_SURFACE-48. THE DISTANCE FROM THE MAIN 
             SURFACE IS GREATER THAN THE POSITION TOLERANCE VALUE.

 ***WARNING: SECONDARY NODE 3 INSTANCE LOWER_SKIN-INSTANCE WILL NOT BE TIED TO 
             THE MAIN SURFACE ASSEMBLY_SURFACE-48. THE DISTANCE FROM THE MAIN 
             SURFACE IS GREATER THAN THE POSITION TOLERANCE VALUE.

 ***WARNING: SECONDARY NODE 4 INSTANCE LOWER_SKIN-INSTANCE WILL NOT BE TIED TO 
             THE MAIN SURFACE ASSEMBLY_SURFACE-48. THE DISTANCE FROM THE MAIN 
             SURFACE IS GREATER THAN THE POSITION TOLERANCE VALUE.

 ***WARNING: SECONDARY NODE 9 INSTANCE LOWER_SKIN-INSTANCE WILL NOT BE TIED TO 
             THE MAIN SURFACE ASSEMBLY_SURFACE-48. THE DISTANCE FROM THE MAIN 
             SURFACE IS GREATER THAN THE POSITION TOLERANCE VALUE.

 ***WARNING: SECONDARY NODE 10 INSTANCE LOWER_SKIN-INSTANCE WILL NOT BE TIED TO 
             THE MAIN SURFACE ASSEMBLY_SURFACE-48. THE DISTANCE FROM THE MAIN 
             SURFACE IS GREATER THAN THE POSITION TOLERANCE VALUE.

 ***WARNING: SECONDARY NODE 13 INSTANCE LOWER_SKIN-INSTANCE WILL NOT BE TIED TO 
             THE MAIN SURFACE ASSEMBLY_SURFACE-48. THE DISTANCE FROM THE MAIN 
             SURFACE IS GREATER THAN THE POSITION TOLERANCE VALUE.

 ***WARNING: SECONDARY NODE 14 INSTANCE LOWER_SKIN-INSTANCE WILL NOT BE TIED TO 
             THE MAIN SURFACE ASSEMBLY_SURFACE-48. THE DISTANCE FROM THE MAIN 
             SURFACE IS GREATER THAN THE POSITION TOLERANCE VALUE.

 ***WARNING: SECONDARY NODE 15 INSTANCE LOWER_SKIN-INSTANCE WILL NOT BE TIED TO 
             THE MAIN SURFACE ASSEMBLY_SURFACE-48. THE DISTANCE FROM THE MAIN 
             SURFACE IS GREATER THAN THE POSITION TOLERANCE VALUE.

 ***WARNING: SECONDARY NODE 16 INSTANCE LOWER_SKIN-INSTANCE WILL NOT BE TIED TO 
             THE MAIN SURFACE ASSEMBLY_SURFACE-48. THE DISTANCE FROM THE MAIN 
             SURFACE IS GREATER THAN THE POSITION TOLERANCE VALUE.

 ***WARNING: SECONDARY NODE 17 INSTANCE LOWER_SKIN-INSTANCE WILL NOT BE TIED TO 
             THE MAIN SURFACE ASSEMBLY_SURFACE-48. THE DISTANCE FROM THE MAIN 
             SURFACE IS GREATER THAN THE POSITION TOLERANCE VALUE.

 ***NOTE: THE ABOVE WARNING MESSAGE IS BEING SUPPRESSED DUE TO EXCESSIVE 
          REPORTING.
  *tie, name=ASSEMBLY_TIE-23, type=SURFACETOSURFACE

 ***WARNING: SECONDARY NODE 1 INSTANCE LOWER_SKIN-INSTANCE WILL NOT BE TIED TO 
             THE MAIN SURFACE ASSEMBLY_SURFACE-49. THE DISTANCE FROM THE MAIN 
             SURFACE IS GREATER THAN THE POSITION TOLERANCE VALUE.

 ***WARNING: SECONDARY NODE 2 INSTANCE LOWER_SKIN-INSTANCE WILL NOT BE TIED TO 
             THE MAIN SURFACE ASSEMBLY_SURFACE-49. THE DISTANCE FROM THE MAIN 
             SURFACE IS GREATER THAN THE POSITION TOLERANCE VALUE.

 ***WARNING: SECONDARY NODE 3 INSTANCE LOWER_SKIN-INSTANCE WILL NOT BE TIED TO 
             THE MAIN SURFACE ASSEMBLY_SURFACE-49. THE DISTANCE FROM THE MAIN 
             SURFACE IS GREATER THAN THE POSITION TOLERANCE VALUE.

 ***WARNING: SECONDARY NODE 4 INSTANCE LOWER_SKIN-INSTANCE WILL NOT BE TIED TO 
             THE MAIN SURFACE ASSEMBLY_SURFACE-49. THE DISTANCE FROM THE MAIN 
             SURFACE IS GREATER THAN THE POSITION TOLERANCE VALUE.

 ***WARNING: SECONDARY NODE 9 INSTANCE LOWER_SKIN-INSTANCE WILL NOT BE TIED TO 
             THE MAIN SURFACE ASSEMBLY_SURFACE-49. THE DISTANCE FROM THE MAIN 
             SURFACE IS GREATER THAN THE POSITION TOLERANCE VALUE.

 ***WARNING: SECONDARY NODE 10 INSTANCE LOWER_SKIN-INSTANCE WILL NOT BE TIED TO 
             THE MAIN SURFACE ASSEMBLY_SURFACE-49. THE DISTANCE FROM THE MAIN 
             SURFACE IS GREATER THAN THE POSITION TOLERANCE VALUE.

 ***WARNING: SECONDARY NODE 13 INSTANCE LOWER_SKIN-INSTANCE WILL NOT BE TIED TO 
             THE MAIN SURFACE ASSEMBLY_SURFACE-49. THE DISTANCE FROM THE MAIN 
             SURFACE IS GREATER THAN THE POSITION TOLERANCE VALUE.

 ***WARNING: SECONDARY NODE 14 INSTANCE LOWER_SKIN-INSTANCE WILL NOT BE TIED TO 
             THE MAIN SURFACE ASSEMBLY_SURFACE-49. THE DISTANCE FROM THE MAIN 
             SURFACE IS GREATER THAN THE POSITION TOLERANCE VALUE.

 ***WARNING: SECONDARY NODE 15 INSTANCE LOWER_SKIN-INSTANCE WILL NOT BE TIED TO 
             THE MAIN SURFACE ASSEMBLY_SURFACE-49. THE DISTANCE FROM THE MAIN 
             SURFACE IS GREATER THAN THE POSITION TOLERANCE VALUE.

 ***WARNING: SECONDARY NODE 16 INSTANCE LOWER_SKIN-INSTANCE WILL NOT BE TIED TO 
             THE MAIN SURFACE ASSEMBLY_SURFACE-49. THE DISTANCE FROM THE MAIN 
             SURFACE IS GREATER THAN THE POSITION TOLERANCE VALUE.

 ***WARNING: SECONDARY NODE 17 INSTANCE LOWER_SKIN-INSTANCE WILL NOT BE TIED TO 
             THE MAIN SURFACE ASSEMBLY_SURFACE-49. THE DISTANCE FROM THE MAIN 
             SURFACE IS GREATER THAN THE POSITION TOLERANCE VALUE.

 ***NOTE: THE ABOVE WARNING MESSAGE IS BEING SUPPRESSED DUE TO EXCESSIVE 
          REPORTING.
  *tie, name=ASSEMBLY_TIE-24, type=SURFACETOSURFACE

 ***WARNING: SECONDARY NODE 1 INSTANCE LOWER_SKIN-INSTANCE WILL NOT BE TIED TO 
             THE MAIN SURFACE ASSEMBLY_SURFACE-50. THE DISTANCE FROM THE MAIN 
             SURFACE IS GREATER THAN THE POSITION TOLERANCE VALUE.

 ***WARNING: SECONDARY NODE 2 INSTANCE LOWER_SKIN-INSTANCE WILL NOT BE TIED TO 
             THE MAIN SURFACE ASSEMBLY_SURFACE-50. THE DISTANCE FROM THE MAIN 
             SURFACE IS GREATER THAN THE POSITION TOLERANCE VALUE.

 ***WARNING: SECONDARY NODE 3 INSTANCE LOWER_SKIN-INSTANCE WILL NOT BE TIED TO 
             THE MAIN SURFACE ASSEMBLY_SURFACE-50. THE DISTANCE FROM THE MAIN 
             SURFACE IS GREATER THAN THE POSITION TOLERANCE VALUE.

 ***WARNING: SECONDARY NODE 4 INSTANCE LOWER_SKIN-INSTANCE WILL NOT BE TIED TO 
             THE MAIN SURFACE ASSEMBLY_SURFACE-50. THE DISTANCE FROM THE MAIN 
             SURFACE IS GREATER THAN THE POSITION TOLERANCE VALUE.

 ***WARNING: SECONDARY NODE 9 INSTANCE LOWER_SKIN-INSTANCE WILL NOT BE TIED TO 
             THE MAIN SURFACE ASSEMBLY_SURFACE-50. THE DISTANCE FROM THE MAIN 
             SURFACE IS GREATER THAN THE POSITION TOLERANCE VALUE.

 ***WARNING: SECONDARY NODE 10 INSTANCE LOWER_SKIN-INSTANCE WILL NOT BE TIED TO 
             THE MAIN SURFACE ASSEMBLY_SURFACE-50. THE DISTANCE FROM THE MAIN 
             SURFACE IS GREATER THAN THE POSITION TOLERANCE VALUE.

 ***WARNING: SECONDARY NODE 13 INSTANCE LOWER_SKIN-INSTANCE WILL NOT BE TIED TO 
             THE MAIN SURFACE ASSEMBLY_SURFACE-50. THE DISTANCE FROM THE MAIN 
             SURFACE IS GREATER THAN THE POSITION TOLERANCE VALUE.

 ***WARNING: SECONDARY NODE 14 INSTANCE LOWER_SKIN-INSTANCE WILL NOT BE TIED TO 
             THE MAIN SURFACE ASSEMBLY_SURFACE-50. THE DISTANCE FROM THE MAIN 
             SURFACE IS GREATER THAN THE POSITION TOLERANCE VALUE.

 ***WARNING: SECONDARY NODE 15 INSTANCE LOWER_SKIN-INSTANCE WILL NOT BE TIED TO 
             THE MAIN SURFACE ASSEMBLY_SURFACE-50. THE DISTANCE FROM THE MAIN 
             SURFACE IS GREATER THAN THE POSITION TOLERANCE VALUE.

 ***WARNING: SECONDARY NODE 16 INSTANCE LOWER_SKIN-INSTANCE WILL NOT BE TIED TO 
             THE MAIN SURFACE ASSEMBLY_SURFACE-50. THE DISTANCE FROM THE MAIN 
             SURFACE IS GREATER THAN THE POSITION TOLERANCE VALUE.

 ***WARNING: SECONDARY NODE 17 INSTANCE LOWER_SKIN-INSTANCE WILL NOT BE TIED TO 
             THE MAIN SURFACE ASSEMBLY_SURFACE-50. THE DISTANCE FROM THE MAIN 
             SURFACE IS GREATER THAN THE POSITION TOLERANCE VALUE.

 ***NOTE: THE ABOVE WARNING MESSAGE IS BEING SUPPRESSED DUE TO EXCESSIVE 
          REPORTING.
  *tie, name=ASSEMBLY_TIE-25, type=SURFACETOSURFACE

 ***WARNING: SECONDARY NODE 1 INSTANCE LOWER_SKIN-INSTANCE WILL NOT BE TIED TO 
             THE MAIN SURFACE ASSEMBLY_SURFACE-51. THE DISTANCE FROM THE MAIN 
             SURFACE IS GREATER THAN THE POSITION TOLERANCE VALUE.

 ***WARNING: SECONDARY NODE 2 INSTANCE LOWER_SKIN-INSTANCE WILL NOT BE TIED TO 
             THE MAIN SURFACE ASSEMBLY_SURFACE-51. THE DISTANCE FROM THE MAIN 
             SURFACE IS GREATER THAN THE POSITION TOLERANCE VALUE.

 ***WARNING: SECONDARY NODE 3 INSTANCE LOWER_SKIN-INSTANCE WILL NOT BE TIED TO 
             THE MAIN SURFACE ASSEMBLY_SURFACE-51. THE DISTANCE FROM THE MAIN 
             SURFACE IS GREATER THAN THE POSITION TOLERANCE VALUE.

 ***WARNING: SECONDARY NODE 4 INSTANCE LOWER_SKIN-INSTANCE WILL NOT BE TIED TO 
             THE MAIN SURFACE ASSEMBLY_SURFACE-51. THE DISTANCE FROM THE MAIN 
             SURFACE IS GREATER THAN THE POSITION TOLERANCE VALUE.

 ***WARNING: SECONDARY NODE 9 INSTANCE LOWER_SKIN-INSTANCE WILL NOT BE TIED TO 
             THE MAIN SURFACE ASSEMBLY_SURFACE-51. THE DISTANCE FROM THE MAIN 
             SURFACE IS GREATER THAN THE POSITION TOLERANCE VALUE.

 ***WARNING: SECONDARY NODE 10 INSTANCE LOWER_SKIN-INSTANCE WILL NOT BE TIED TO 
             THE MAIN SURFACE ASSEMBLY_SURFACE-51. THE DISTANCE FROM THE MAIN 
             SURFACE IS GREATER THAN THE POSITION TOLERANCE VALUE.

 ***WARNING: SECONDARY NODE 13 INSTANCE LOWER_SKIN-INSTANCE WILL NOT BE TIED TO 
             THE MAIN SURFACE ASSEMBLY_SURFACE-51. THE DISTANCE FROM THE MAIN 
             SURFACE IS GREATER THAN THE POSITION TOLERANCE VALUE.

 ***WARNING: SECONDARY NODE 14 INSTANCE LOWER_SKIN-INSTANCE WILL NOT BE TIED TO 
             THE MAIN SURFACE ASSEMBLY_SURFACE-51. THE DISTANCE FROM THE MAIN 
             SURFACE IS GREATER THAN THE POSITION TOLERANCE VALUE.

 ***WARNING: SECONDARY NODE 15 INSTANCE LOWER_SKIN-INSTANCE WILL NOT BE TIED TO 
             THE MAIN SURFACE ASSEMBLY_SURFACE-51. THE DISTANCE FROM THE MAIN 
             SURFACE IS GREATER THAN THE POSITION TOLERANCE VALUE.

 ***WARNING: SECONDARY NODE 16 INSTANCE LOWER_SKIN-INSTANCE WILL NOT BE TIED TO 
             THE MAIN SURFACE ASSEMBLY_SURFACE-51. THE DISTANCE FROM THE MAIN 
             SURFACE IS GREATER THAN THE POSITION TOLERANCE VALUE.

 ***WARNING: SECONDARY NODE 17 INSTANCE LOWER_SKIN-INSTANCE WILL NOT BE TIED TO 
             THE MAIN SURFACE ASSEMBLY_SURFACE-51. THE DISTANCE FROM THE MAIN 
             SURFACE IS GREATER THAN THE POSITION TOLERANCE VALUE.

 ***NOTE: THE ABOVE WARNING MESSAGE IS BEING SUPPRESSED DUE TO EXCESSIVE 
          REPORTING.
  *tie, name=ASSEMBLY_TIE-26, type=SURFACETOSURFACE

 ***WARNING: SECONDARY NODE 1 INSTANCE LOWER_SKIN-INSTANCE WILL NOT BE TIED TO 
             THE MAIN SURFACE ASSEMBLY_SURFACE-52. THE DISTANCE FROM THE MAIN 
             SURFACE IS GREATER THAN THE POSITION TOLERANCE VALUE.

 ***WARNING: SECONDARY NODE 2 INSTANCE LOWER_SKIN-INSTANCE WILL NOT BE TIED TO 
             THE MAIN SURFACE ASSEMBLY_SURFACE-52. THE DISTANCE FROM THE MAIN 
             SURFACE IS GREATER THAN THE POSITION TOLERANCE VALUE.

 ***WARNING: SECONDARY NODE 3 INSTANCE LOWER_SKIN-INSTANCE WILL NOT BE TIED TO 
             THE MAIN SURFACE ASSEMBLY_SURFACE-52. THE DISTANCE FROM THE MAIN 
             SURFACE IS GREATER THAN THE POSITION TOLERANCE VALUE.

 ***WARNING: SECONDARY NODE 4 INSTANCE LOWER_SKIN-INSTANCE WILL NOT BE TIED TO 
             THE MAIN SURFACE ASSEMBLY_SURFACE-52. THE DISTANCE FROM THE MAIN 
             SURFACE IS GREATER THAN THE POSITION TOLERANCE VALUE.

 ***WARNING: SECONDARY NODE 9 INSTANCE LOWER_SKIN-INSTANCE WILL NOT BE TIED TO 
             THE MAIN SURFACE ASSEMBLY_SURFACE-52. THE DISTANCE FROM THE MAIN 
             SURFACE IS GREATER THAN THE POSITION TOLERANCE VALUE.

 ***WARNING: SECONDARY NODE 10 INSTANCE LOWER_SKIN-INSTANCE WILL NOT BE TIED TO 
             THE MAIN SURFACE ASSEMBLY_SURFACE-52. THE DISTANCE FROM THE MAIN 
             SURFACE IS GREATER THAN THE POSITION TOLERANCE VALUE.

 ***WARNING: SECONDARY NODE 13 INSTANCE LOWER_SKIN-INSTANCE WILL NOT BE TIED TO 
             THE MAIN SURFACE ASSEMBLY_SURFACE-52. THE DISTANCE FROM THE MAIN 
             SURFACE IS GREATER THAN THE POSITION TOLERANCE VALUE.

 ***WARNING: SECONDARY NODE 14 INSTANCE LOWER_SKIN-INSTANCE WILL NOT BE TIED TO 
             THE MAIN SURFACE ASSEMBLY_SURFACE-52. THE DISTANCE FROM THE MAIN 
             SURFACE IS GREATER THAN THE POSITION TOLERANCE VALUE.

 ***WARNING: SECONDARY NODE 15 INSTANCE LOWER_SKIN-INSTANCE WILL NOT BE TIED TO 
             THE MAIN SURFACE ASSEMBLY_SURFACE-52. THE DISTANCE FROM THE MAIN 
             SURFACE IS GREATER THAN THE POSITION TOLERANCE VALUE.

 ***WARNING: SECONDARY NODE 16 INSTANCE LOWER_SKIN-INSTANCE WILL NOT BE TIED TO 
             THE MAIN SURFACE ASSEMBLY_SURFACE-52. THE DISTANCE FROM THE MAIN 
             SURFACE IS GREATER THAN THE POSITION TOLERANCE VALUE.

 ***WARNING: SECONDARY NODE 17 INSTANCE LOWER_SKIN-INSTANCE WILL NOT BE TIED TO 
             THE MAIN SURFACE ASSEMBLY_SURFACE-52. THE DISTANCE FROM THE MAIN 
             SURFACE IS GREATER THAN THE POSITION TOLERANCE VALUE.

 ***NOTE: THE ABOVE WARNING MESSAGE IS BEING SUPPRESSED DUE TO EXCESSIVE 
          REPORTING.
  *tie, name=ASSEMBLY_TIE-27, type=SURFACETOSURFACE

 ***WARNING: SECONDARY NODE 1 INSTANCE LOWER_SKIN-INSTANCE WILL NOT BE TIED TO 
             THE MAIN SURFACE ASSEMBLY_SURFACE-53. THE DISTANCE FROM THE MAIN 
             SURFACE IS GREATER THAN THE POSITION TOLERANCE VALUE.

 ***WARNING: SECONDARY NODE 2 INSTANCE LOWER_SKIN-INSTANCE WILL NOT BE TIED TO 
             THE MAIN SURFACE ASSEMBLY_SURFACE-53. THE DISTANCE FROM THE MAIN 
             SURFACE IS GREATER THAN THE POSITION TOLERANCE VALUE.

 ***WARNING: SECONDARY NODE 3 INSTANCE LOWER_SKIN-INSTANCE WILL NOT BE TIED TO 
             THE MAIN SURFACE ASSEMBLY_SURFACE-53. THE DISTANCE FROM THE MAIN 
             SURFACE IS GREATER THAN THE POSITION TOLERANCE VALUE.

 ***WARNING: SECONDARY NODE 4 INSTANCE LOWER_SKIN-INSTANCE WILL NOT BE TIED TO 
             THE MAIN SURFACE ASSEMBLY_SURFACE-53. THE DISTANCE FROM THE MAIN 
             SURFACE IS GREATER THAN THE POSITION TOLERANCE VALUE.

 ***WARNING: SECONDARY NODE 9 INSTANCE LOWER_SKIN-INSTANCE WILL NOT BE TIED TO 
             THE MAIN SURFACE ASSEMBLY_SURFACE-53. THE DISTANCE FROM THE MAIN 
             SURFACE IS GREATER THAN THE POSITION TOLERANCE VALUE.

 ***WARNING: SECONDARY NODE 10 INSTANCE LOWER_SKIN-INSTANCE WILL NOT BE TIED TO 
             THE MAIN SURFACE ASSEMBLY_SURFACE-53. THE DISTANCE FROM THE MAIN 
             SURFACE IS GREATER THAN THE POSITION TOLERANCE VALUE.

 ***WARNING: SECONDARY NODE 13 INSTANCE LOWER_SKIN-INSTANCE WILL NOT BE TIED TO 
             THE MAIN SURFACE ASSEMBLY_SURFACE-53. THE DISTANCE FROM THE MAIN 
             SURFACE IS GREATER THAN THE POSITION TOLERANCE VALUE.

 ***WARNING: SECONDARY NODE 14 INSTANCE LOWER_SKIN-INSTANCE WILL NOT BE TIED TO 
             THE MAIN SURFACE ASSEMBLY_SURFACE-53. THE DISTANCE FROM THE MAIN 
             SURFACE IS GREATER THAN THE POSITION TOLERANCE VALUE.

 ***WARNING: SECONDARY NODE 15 INSTANCE LOWER_SKIN-INSTANCE WILL NOT BE TIED TO 
             THE MAIN SURFACE ASSEMBLY_SURFACE-53. THE DISTANCE FROM THE MAIN 
             SURFACE IS GREATER THAN THE POSITION TOLERANCE VALUE.

[...]
             ACCEPTABLE.

 ***WARNING: OVERCONSTRAINT CHECKS: NODE 78 INSTANCE LOWER_SKIN-INSTANCE IS 
             USED MORE THAN ONCE AS A SECONDARY NODE IN THE *TIE KEYWORD.  THE 
             CONSTRAINT BETWEEN THIS NODE AND THE MAIN SURFACE WITH NODE 16 
             INSTANCE LOWER_STRINGERS-INSTANCE IS REMOVED.  CHECK IF THIS IS 
             ACCEPTABLE.

 ***WARNING: OVERCONSTRAINT CHECKS: NODE 76 INSTANCE LOWER_SKIN-INSTANCE IS 
             USED MORE THAN ONCE AS A SECONDARY NODE IN THE *TIE KEYWORD.  THE 
             CONSTRAINT BETWEEN THIS NODE AND THE MAIN SURFACE WITH NODE 23 
             INSTANCE LOWER_STRINGERS-INSTANCE IS REMOVED.  CHECK IF THIS IS 
             ACCEPTABLE.

 ***WARNING: OVERCONSTRAINT CHECKS: NODE 76 INSTANCE LOWER_SKIN-INSTANCE IS 
             USED MORE THAN ONCE AS A SECONDARY NODE IN THE *TIE KEYWORD.  THE 
             CONSTRAINT BETWEEN THIS NODE AND THE MAIN SURFACE WITH NODE 23 
             INSTANCE LOWER_STRINGERS-INSTANCE IS REMOVED.  CHECK IF THIS IS 
             ACCEPTABLE.
  *tie, name=ASSEMBLY_TIE, type=SURFACETOSURFACE
  *tie, name=ASSEMBLY_TIE-1, type=SURFACETOSURFACE
  *tie, name=ASSEMBLY_TIE-2, type=SURFACETOSURFACE
  *tie, name=ASSEMBLY_TIE-3, type=SURFACETOSURFACE
  *tie, name=ASSEMBLY_TIE-4, type=SURFACETOSURFACE
  *tie, name=ASSEMBLY_TIE-5, type=SURFACETOSURFACE
  *tie, name=ASSEMBLY_TIE-6, type=SURFACETOSURFACE
  *tie, name=ASSEMBLY_TIE-7, type=SURFACETOSURFACE
  *tie, name=ASSEMBLY_TIE-8, type=SURFACETOSURFACE
  *tie, name=ASSEMBLY_TIE-9, type=SURFACETOSURFACE
  *tie, name=ASSEMBLY_TIE-10, type=SURFACETOSURFACE
  *tie, name=ASSEMBLY_TIE-11, type=SURFACETOSURFACE
  *tie, name=ASSEMBLY_TIE-12, type=SURFACETOSURFACE
  *tie, name=ASSEMBLY_TIE-13, type=SURFACETOSURFACE
  *tie, name=ASSEMBLY_TIE-14, type=SURFACETOSURFACE
  *tie, name=ASSEMBLY_TIE-15, type=SURFACETOSURFACE
  *tie, name=ASSEMBLY_TIE-16, type=SURFACETOSURFACE
  *tie, name=ASSEMBLY_TIE-17, type=SURFACETOSURFACE
  *tie, name=ASSEMBLY_TIE-18, type=SURFACETOSURFACE
  *tie, name=ASSEMBLY_TIE-19, type=SURFACETOSURFACE
  *tie, name=ASSEMBLY_TIE-20, type=SURFACETOSURFACE
  *tie, name=ASSEMBLY_TIE-21, type=SURFACETOSURFACE
  *tie, name=ASSEMBLY_TIE-22, type=SURFACETOSURFACE
  *tie, name=ASSEMBLY_TIE-23, type=SURFACETOSURFACE
  *tie, name=ASSEMBLY_TIE-24, type=SURFACETOSURFACE
  *tie, name=ASSEMBLY_TIE-25, type=SURFACETOSURFACE
  *tie, name=ASSEMBLY_TIE-26, type=SURFACETOSURFACE
  *tie, name=ASSEMBLY_TIE-27, type=SURFACETOSURFACE
  *tie, name=ASSEMBLY_TIE-28, type=SURFACETOSURFACE
  *tie, name=ASSEMBLY_TIE-29, type=SURFACETOSURFACE
  *output, name=FIELD-OUTPUT, field, variable=PRESELECT
  *output, name=HISTORY-OUTPUT, history, variable=PRESELECT

 ***WARNING: 1072 nodes are either missing intersection with their respective 
             main surface or are outside the adjust zone. The nodes have been 
             identified in node set WarnNodeMissMainIntersect.

 ***WARNING: 12 nodes are used more than once as a secondary node in *TIE 
             keyword. One of the *TIE constraints at each of these nodes have 
             been removed. The nodes have been identified in node set 
             WarnNodeOverconTieSecondary.
  *output, name=FIELD-OUTPUT, field, variable=PRESELECT
  *output, name=HISTORY-OUTPUT, history, variable=PRESELECT
  *output, name=FIELD-OUTPUT, field, variable=PRESELECT
  *output, name=HISTORY-OUTPUT, history, variable=PRESELECT
  
                               E L E M E N T   Q U A L I T Y  C H E C K S        
  
  
 ***NOTES: DISTORTED ISOPARAMETRIC ELEMENTS: ANGLE BETWEEN ISOPARAMETRIC LINES 
           IS LESS THAN 45 DEGREES OR GREATER THAN 135 DEGREES.
  
           TETRAHEDRAL QUALITY MEASURE: VOLUME OF TETRAHEDRON DIVIDED BY THE 
           VOLUME OF EQUILATERAL TETRAHEDRON WITH SAME CIRCUMSPHERE RADIUS; 
           0 FOR DEGENERATE TETRAHEDRON AND 1 FOR EQUILATERIAL TETRAHEDRON. IT 
           IS RECOMMENDED THAT THE TETRAHEDRAL QUALITY MEASURE BE GREATER THAN 
           0.02, THE MIN INTERIOR (DIHEDRAL) ANGLE BE GREATER THAN 10 DEGREES, 
           AND THE MAX INTERIOR (DIHEDRAL) ANGLE BE LESS THAN 160 DEGREES. 
  
           MODIFIED TETRAHEDRAL QUALITY MEASURE: ANGLES BETWEEN THE TWO LINE 
           SEGMENTS ON EACH EDGE; THE EDGES OF MODIFIED TETRAHEDRAL SHOULD BE 
           AS STRAIGHT AS POSSIBLE. IT IS RECOMMENDED THAT THE ANGLE BETWEEN 
           THE TWO LINE SEGMENTS ON EACH EDGE IS BETWEEN 160 AND 180 DEGREES. 
  
           TRIANGULAR QUALITY MEASURE: AREA OF TRIANGLE DIVIDED BY THE AREA OF 
           EQUILATERAL TRIANGLE WITH SAME CIRCUMCIRCLE RADIUS; 0 FOR DEGENERATE 
           TRIANGLE AND 1 FOR EQUILATERAL TRIANGLE. IT IS RECOMMENDED THAT THE
           TRIANGULAR QUALITY MEASURE BE GREATER THAN 0.01, THE MIN INTERIOR 
           ANGLE BE GREATER THAN 10 DEGREES, AND THE MAX INTERIOR ANGLE BE LESS 
           THAN 160 DEGREES. 
  
           NODAL ADJUSTMENTS ARISING FROM CONTACT INTERACTIONS AND/OR TIE 
           CONSTRAINTS CAN CAUSE SEVERE ELEMENT DISTORTION. IT MAY BE NECESSARY 
           TO REMESH IN ORDER TO REDUCE THE AMOUNT OF ADJUSTMENT. 

 ***WARNING: 8 elements are distorted. Either the isoparametric angles are out 
             of the suggested limits or the triangular or tetrahedral quality 
             measure is bad. The elements have been identified in element set 
             WarnElemDistorted.
  
 --------------------------------------------------------------------------------
 Distorted isoparametric elements
  
              Element                Min/max angle   Adjusted nodes 
 ---------------------------------- ---------------- -------------- 
      LOWER_STRINGERS-INSTANCE.1058          7.13234       NO       
      LOWER_STRINGERS-INSTANCE.1143          7.24282       NO       
      LOWER_STRINGERS-INSTANCE.1230          7.18162       NO       
      LOWER_STRINGERS-INSTANCE.1317          7.11695       NO       
      UPPER_STRINGERS-INSTANCE.1059          7.10451       NO       
      UPPER_STRINGERS-INSTANCE.1144          7.20946       NO       
      UPPER_STRINGERS-INSTANCE.1231          7.14313       NO       
      UPPER_STRINGERS-INSTANCE.1318          7.07315       NO       
  
  
  *Step, name=analysis1, nlgeom=NO
  *output, name=FIELD-OUTPUT, field, variable=PRESELECT
  *output, name=HISTORY-OUTPUT, history, variable=PRESELECT
  *Step, name=analysis1, nlgeom=NO
  *Step, name=analysis1, nlgeom=NO
  *static
  *output, name=FIELD-OUTPUT, field, variable=PRESELECT
  *output, name=HISTORY-OUTPUT, history, variable=PRESELECT
  *endstep
  *boundary
  *boundary
  *boundary
  *boundary
  *boundary
  *Step, name=analysis1, nlgeom=NO
  *static
  *cload
  *cload
  *cload
  *cload
  *cload
  *cload
  *cload
  *cload
  *cload
  *cload
  *cload
  *cload
  *cload
  *cload
  *cload
  *cload
  *cload
  *cload
  *cload
  *cload
  *cload
  *cload
  *cload
  *cload
  *cload
  *cload
  *cload
  *cload
  *cload
  *cload
  *cload
  *cload
  *cload
  *cload
  *cload
  *cload
  *cload
  *cload
  *cload
  *cload
  *cload
  *cload
  *cload
  *cload
  *cload
  *cload
  *cload
  *cload
  *cload
  *cload
  *cload
  *cload
  *cload
  *cload
  *cload
  *cload
  *cload
  *cload
  *endstep

 ***WARNING: DEGREE OF FREEDOM 1 IS NOT ACTIVE ON NODE 2 INSTANCE 
             FRONT_SPAR_CENTRE_SECTION-INSTANCE - THIS BOUNDARY CONDITION IS 
             IGNORED

 ***WARNING: DEGREE OF FREEDOM 2 IS NOT ACTIVE ON NODE 2 INSTANCE 
             FRONT_SPAR_CENTRE_SECTION-INSTANCE - THIS BOUNDARY CONDITION IS 
             IGNORED

 ***WARNING: DEGREE OF FREEDOM 3 IS NOT ACTIVE ON NODE 2 INSTANCE 
             FRONT_SPAR_CENTRE_SECTION-INSTANCE - THIS BOUNDARY CONDITION IS 
             IGNORED

 ***WARNING: DEGREE OF FREEDOM 4 IS NOT ACTIVE ON NODE 2 INSTANCE 
             FRONT_SPAR_CENTRE_SECTION-INSTANCE - THIS BOUNDARY CONDITION IS 
             IGNORED

 ***WARNING: DEGREE OF FREEDOM 5 IS NOT ACTIVE ON NODE 2 INSTANCE 
             FRONT_SPAR_CENTRE_SECTION-INSTANCE - THIS BOUNDARY CONDITION IS 
             IGNORED

 ***WARNING: DEGREE OF FREEDOM 6 IS NOT ACTIVE ON NODE 2 INSTANCE 
             FRONT_SPAR_CENTRE_SECTION-INSTANCE - THIS BOUNDARY CONDITION IS 
             IGNORED

 ***WARNING: DEGREE OF FREEDOM 1 IS NOT ACTIVE ON NODE 4 INSTANCE 
             FRONT_SPAR_CENTRE_SECTION-INSTANCE - THIS BOUNDARY CONDITION IS 
             IGNORED

 ***WARNING: DEGREE OF FREEDOM 2 IS NOT ACTIVE ON NODE 4 INSTANCE 
             FRONT_SPAR_CENTRE_SECTION-INSTANCE - THIS BOUNDARY CONDITION IS 
             IGNORED

 ***WARNING: DEGREE OF FREEDOM 3 IS NOT ACTIVE ON NODE 4 INSTANCE 
             FRONT_SPAR_CENTRE_SECTION-INSTANCE - THIS BOUNDARY CONDITION IS 
             IGNORED

 ***WARNING: DEGREE OF FREEDOM 4 IS NOT ACTIVE ON NODE 4 INSTANCE 
             FRONT_SPAR_CENTRE_SECTION-INSTANCE - THIS BOUNDARY CONDITION IS 
             IGNORED

 ***WARNING: DEGREE OF FREEDOM 5 IS NOT ACTIVE ON NODE 4 INSTANCE 
             FRONT_SPAR_CENTRE_SECTION-INSTANCE - THIS BOUNDARY CONDITION IS 
             IGNORED

 ***WARNING: DEGREE OF FREEDOM 6 IS NOT ACTIVE ON NODE 4 INSTANCE 
             FRONT_SPAR_CENTRE_SECTION-INSTANCE - THIS BOUNDARY CONDITION IS 
             IGNORED

 ***WARNING: DEGREE OF FREEDOM 1 IS NOT ACTIVE ON NODE 2 INSTANCE 
             REAR_SPAR_CENTRE_SECTION-INSTANCE - THIS BOUNDARY CONDITION IS 
             IGNORED

 ***WARNING: DEGREE OF FREEDOM 2 IS NOT ACTIVE ON NODE 2 INSTANCE 
             REAR_SPAR_CENTRE_SECTION-INSTANCE - THIS BOUNDARY CONDITION IS 
             IGNORED

 ***WARNING: DEGREE OF FREEDOM 3 IS NOT ACTIVE ON NODE 2 INSTANCE 
             REAR_SPAR_CENTRE_SECTION-INSTANCE - THIS BOUNDARY CONDITION IS 
             IGNORED

 ***WARNING: DEGREE OF FREEDOM 4 IS NOT ACTIVE ON NODE 2 INSTANCE 
             REAR_SPAR_CENTRE_SECTION-INSTANCE - THIS BOUNDARY CONDITION IS 
             IGNORED

 ***WARNING: DEGREE OF FREEDOM 5 IS NOT ACTIVE ON NODE 2 INSTANCE 
             REAR_SPAR_CENTRE_SECTION-INSTANCE - THIS BOUNDARY CONDITION IS 
             IGNORED

 ***WARNING: DEGREE OF FREEDOM 6 IS NOT ACTIVE ON NODE 2 INSTANCE 
             REAR_SPAR_CENTRE_SECTION-INSTANCE - THIS BOUNDARY CONDITION IS 
             IGNORED

 ***WARNING: DEGREE OF FREEDOM 1 IS NOT ACTIVE ON NODE 4 INSTANCE 
             REAR_SPAR_CENTRE_SECTION-INSTANCE - THIS BOUNDARY CONDITION IS 
             IGNORED

 ***WARNING: DEGREE OF FREEDOM 2 IS NOT ACTIVE ON NODE 4 INSTANCE 
             REAR_SPAR_CENTRE_SECTION-INSTANCE - THIS BOUNDARY CONDITION IS 
             IGNORED

 ***WARNING: DEGREE OF FREEDOM 3 IS NOT ACTIVE ON NODE 4 INSTANCE 
             REAR_SPAR_CENTRE_SECTION-INSTANCE - THIS BOUNDARY CONDITION IS 
             IGNORED

 ***WARNING: DEGREE OF FREEDOM 4 IS NOT ACTIVE ON NODE 4 INSTANCE 
             REAR_SPAR_CENTRE_SECTION-INSTANCE - THIS BOUNDARY CONDITION IS 
             IGNORED

 ***WARNING: DEGREE OF FREEDOM 5 IS NOT ACTIVE ON NODE 4 INSTANCE 
             REAR_SPAR_CENTRE_SECTION-INSTANCE - THIS BOUNDARY CONDITION IS 
             IGNORED

 ***WARNING: DEGREE OF FREEDOM 6 IS NOT ACTIVE ON NODE 4 INSTANCE 
             REAR_SPAR_CENTRE_SECTION-INSTANCE - THIS BOUNDARY CONDITION IS 
             IGNORED

 ***WARNING: DEGREE OF FREEDOM 1 IS NOT ACTIVE ON NODE 40 INSTANCE 
             UPPER_SKIN-INSTANCE - THIS BOUNDARY CONDITION IS IGNORED

 ***WARNING: DEGREE OF FREEDOM 2 IS NOT ACTIVE ON NODE 40 INSTANCE 
             UPPER_SKIN-INSTANCE - THIS BOUNDARY CONDITION IS IGNORED

 ***WARNING: DEGREE OF FREEDOM 3 IS NOT ACTIVE ON NODE 40 INSTANCE 
             UPPER_SKIN-INSTANCE - THIS BOUNDARY CONDITION IS IGNORED

 ***WARNING: DEGREE OF FREEDOM 4 IS NOT ACTIVE ON NODE 40 INSTANCE 
             UPPER_SKIN-INSTANCE - THIS BOUNDARY CONDITION IS IGNORED

 ***WARNING: DEGREE OF FREEDOM 5 IS NOT ACTIVE ON NODE 40 INSTANCE 
             UPPER_SKIN-INSTANCE - THIS BOUNDARY CONDITION IS IGNORED

 ***WARNING: DEGREE OF FREEDOM 6 IS NOT ACTIVE ON NODE 40 INSTANCE 
             UPPER_SKIN-INSTANCE - THIS BOUNDARY CONDITION IS IGNORED

 ***WARNING: DEGREE OF FREEDOM 1 IS NOT ACTIVE ON NODE 43 INSTANCE 
             UPPER_SKIN-INSTANCE - THIS BOUNDARY CONDITION IS IGNORED

 ***WARNING: DEGREE OF FREEDOM 2 IS NOT ACTIVE ON NODE 43 INSTANCE 
             UPPER_SKIN-INSTANCE - THIS BOUNDARY CONDITION IS IGNORED

 ***WARNING: DEGREE OF FREEDOM 3 IS NOT ACTIVE ON NODE 43 INSTANCE 
             UPPER_SKIN-INSTANCE - THIS BOUNDARY CONDITION IS IGNORED

 ***WARNING: DEGREE OF FREEDOM 4 IS NOT ACTIVE ON NODE 43 INSTANCE 
             UPPER_SKIN-INSTANCE - THIS BOUNDARY CONDITION IS IGNORED

 ***WARNING: DEGREE OF FREEDOM 5 IS NOT ACTIVE ON NODE 43 INSTANCE 
             UPPER_SKIN-INSTANCE - THIS BOUNDARY CONDITION IS IGNORED

 ***WARNING: DEGREE OF FREEDOM 6 IS NOT ACTIVE ON NODE 43 INSTANCE 
             UPPER_SKIN-INSTANCE - THIS BOUNDARY CONDITION IS IGNORED

 ***WARNING: DEGREE OF FREEDOM 1 IS NOT ACTIVE ON NODE 46 INSTANCE 
             UPPER_SKIN-INSTANCE - THIS BOUNDARY CONDITION IS IGNORED

 ***WARNING: DEGREE OF FREEDOM 2 IS NOT ACTIVE ON NODE 46 INSTANCE 
             UPPER_SKIN-INSTANCE - THIS BOUNDARY CONDITION IS IGNORED

 ***WARNING: DEGREE OF FREEDOM 3 IS NOT ACTIVE ON NODE 46 INSTANCE 
             UPPER_SKIN-INSTANCE - THIS BOUNDARY CONDITION IS IGNORED

 ***WARNING: DEGREE OF FREEDOM 4 IS NOT ACTIVE ON NODE 46 INSTANCE 
             UPPER_SKIN-INSTANCE - THIS BOUNDARY CONDITION IS IGNORED

 ***WARNING: DEGREE OF FREEDOM 5 IS NOT ACTIVE ON NODE 46 INSTANCE 
             UPPER_SKIN-INSTANCE - THIS BOUNDARY CONDITION IS IGNORED

 ***WARNING: DEGREE OF FREEDOM 6 IS NOT ACTIVE ON NODE 46 INSTANCE 
             UPPER_SKIN-INSTANCE - THIS BOUNDARY CONDITION IS IGNORED

 ***WARNING: DEGREE OF FREEDOM 1 IS NOT ACTIVE ON NODE 49 INSTANCE 
             UPPER_SKIN-INSTANCE - THIS BOUNDARY CONDITION IS IGNORED

 ***WARNING: DEGREE OF FREEDOM 2 IS NOT ACTIVE ON NODE 49 INSTANCE 
             UPPER_SKIN-INSTANCE - THIS BOUNDARY CONDITION IS IGNORED

 ***WARNING: DEGREE OF FREEDOM 3 IS NOT ACTIVE ON NODE 49 INSTANCE 
             UPPER_SKIN-INSTANCE - THIS BOUNDARY CONDITION IS IGNORED

 ***WARNING: DEGREE OF FREEDOM 4 IS NOT ACTIVE ON NODE 49 INSTANCE 
             UPPER_SKIN-INSTANCE - THIS BOUNDARY CONDITION IS IGNORED

 ***WARNING: DEGREE OF FREEDOM 5 IS NOT ACTIVE ON NODE 49 INSTANCE 
             UPPER_SKIN-INSTANCE - THIS BOUNDARY CONDITION IS IGNORED

 ***WARNING: DEGREE OF FREEDOM 6 IS NOT ACTIVE ON NODE 49 INSTANCE 
             UPPER_SKIN-INSTANCE - THIS BOUNDARY CONDITION IS IGNORED

 ***NOTE: Boundary conditions are specified on inactive dof of 8 nodes. The 
          nodes have been identified in node set WarnNodeBCInactiveDof.



                            P R O B L E M   S I Z E


          NUMBER OF ELEMENTS IS                                  3514
          NUMBER OF NODES IS                                     4748
          NUMBER OF NODES DEFINED BY THE USER                    4748
          TOTAL NUMBER OF VARIABLES IN THE MODEL                28488
          (DEGREES OF FREEDOM PLUS MAX NO. OF ANY LAGRANGE MULTIPLIER
           VARIABLES. INCLUDE *PRINT,SOLVE=YES TO GET THE ACTUAL NUMBER.)



                              END OF USER INPUT PROCESSING



     JOB TIME SUMMARY
       USER TIME (SEC)      =     0.50    
       SYSTEM TIME (SEC)    =     0.10    
       TOTAL CPU TIME (SEC) =     0.60    
       WALLCLOCK TIME (SEC) =            1
1

   Abaqus 2023                                  Date 15-Jun-2024   Time 18:29:24
   For use by DELFT UNIVERSITY OF TECHNOLOGY under license from Dassault Systemes or its subsidiary.

                                                                                               STEP    1  INCREMENT    1
                                                                                          TIME COMPLETED IN THIS STEP   0.00    


                        S T E P       1     S T A T I C   A N A L Y S I S


                                                                                          

     AUTOMATIC TIME CONTROL WITH -
          A SUGGESTED INITIAL TIME INCREMENT OF                1.000E-02
          AND A TOTAL TIME PERIOD OF                            1.00    
          THE MINIMUM TIME INCREMENT ALLOWED IS                1.000E-15
          THE MAXIMUM TIME INCREMENT ALLOWED IS                0.100    

     LINEAR EQUATION SOLVER TYPE         DIRECT SPARSE
  
                   M E M O R Y   E S T I M A T E
  
 PROCESS      FLOATING PT       MINIMUM MEMORY        MEMORY TO
              OPERATIONS           REQUIRED          MINIMIZE I/O
             PER ITERATION           (MB)               (MB)
  
     1          1.59E+09               24                101
  
 NOTE:
      (1) SINCE ABAQUS DOES NOT PRE-ALLOCATE MEMORY AND ONLY ALLOCATES MEMORY AS NEEDED DURING THE ANALYSIS,
          THE MEMORY REQUIREMENT PRINTED HERE CAN ONLY BE VIEWED AS A GENERAL GUIDELINE BASED ON THE BEST
          KNOWLEDGE AVAILABLE AT THE BEGINNING OF A STEP BEFORE THE SOLUTION PROCESS HAS BEGUN.
      (2) THE ESTIMATE IS NORMALLY UPDATED AT THE BEGINNING OF EVERY STEP. IT IS THE MAXIMUM VALUE OF THE
          ESTIMATE FROM THE CURRENT STEP TO THE LAST STEP OF THE ANALYSIS, WITH UNSYMMETRIC SOLUTION TAKEN
          INTO ACCOUNT IF APPLICABLE. 
      (3) SINCE THE ESTIMATE IS BASED ON THE ACTIVE DEGREES OF FREEDOM IN THE FIRST ITERATION OF THE 
          CURRENT STEP, THE MEMORY ESTIMATE MIGHT BE SIGNIFICANTLY DIFFERENT THAN ACTUAL USAGE FOR 
          PROBLEMS WITH SUBSTANTIAL CHANGES IN ACTIVE DEGREES OF FREEDOM BETWEEN STEPS (OR EVEN WITHIN
          THE SAME STEP). EXAMPLES ARE: PROBLEMS WITH SIGNIFICANT CONTACT CHANGES, PROBLEMS WITH MODEL
          CHANGE, PROBLEMS WITH BOTH STATIC STEP AND STEADY STATE DYNAMIC PROCEDURES WHERE ACOUSTIC 
          ELEMENTS WILL ONLY BE ACTIVATED IN THE STEADY STATE DYNAMIC STEPS.
      (4) FOR MULTI-PROCESS EXECUTION, THE ESTIMATED VALUE OF FLOATING POINT OPERATIONS FOR EACH PROCESS
          IS BASED ON AN INITIAL SCHEDULING OF OPERATIONS AND MIGHT NOT REFLECT THE ACTUAL FLOATING 
          POINT OPERATIONS COMPLETED ON EACH PROCESS. OPERATIONS ARE DYNAMICALLY BALANCED DURING EXECUTION, 
          SO THE ACTUAL BALANCE OF OPERATIONS BETWEEN PROCESSES IS EXPECTED TO BE BETTER THAN THE ESTIMATE
          PRINTED HERE.
      (5) THE UPPER LIMIT OF MEMORY THAT CAN BE ALLOCATED BY ABAQUS WILL IN GENERAL DEPEND ON THE VALUE OF
          THE "MEMORY" PARAMETER AND THE AMOUNT OF PHYSICAL MEMORY AVAILABLE ON THE MACHINE. PLEASE SEE
          THE "ABAQUS ANALYSIS USER'S MANUAL" FOR MORE DETAILS. THE ACTUAL USAGE OF MEMORY AND OF DISK
          SPACE FOR SCRATCH DATA WILL DEPEND ON THIS UPPER LIMIT AS WELL AS THE MEMORY REQUIRED TO MINIMIZE
          I/O. IF THE MEMORY UPPER LIMIT IS GREATER THAN THE MEMORY REQUIRED TO MINIMIZE I/O, THEN THE ACTUAL
          MEMORY USAGE WILL BE CLOSE TO THE ESTIMATED "MEMORY TO MINIMIZE I/O" VALUE, AND THE SCRATCH DISK
          USAGE WILL BE CLOSE-TO-ZERO; OTHERWISE, THE ACTUAL MEMORY USED WILL BE CLOSE TO THE PREVIOUSLY
          MENTIONED MEMORY LIMIT, AND THE SCRATCH DISK USAGE WILL BE ROUGHLY PROPORTIONAL TO THE DIFFERENCE
          BETWEEN THE ESTIMATED "MEMORY TO MINIMIZE I/O" AND THE MEMORY UPPER LIMIT. HOWEVER ACCURATE
          ESTIMATE OF THE SCRATCH DISK SPACE IS NOT POSSIBLE.
      (6) USING "*RESTART, WRITE" CAN GENERATE A LARGE AMOUNT OF DATA WRITTEN IN THE WORK DIRECTORY.


          THE ANALYSIS HAS BEEN COMPLETED



                              ANALYSIS COMPLETE
                              WITH    297 WARNING MESSAGES ON THE DAT FILE
                              AND      95 WARNING MESSAGES ON THE MSG FILE
                                       94 WARNINGS ARE FOR NUMERICAL PROBLEMS



     JOB TIME SUMMARY
       USER TIME (SEC)      =      4.6    
       SYSTEM TIME (SEC)    =     0.30    
       TOTAL CPU TIME (SEC) =      4.9    
       WALLCLOCK TIME (SEC) =            6
