*Heading
** Job name: ParaPy Project Model name: ParaPy Model
** Generated by: ParaPy abaqus 0.1.15
*PrePrint, ECHO=NO, MODEL=NO, HISTORY=NO, CONTACT=NO
** 
** PARTS
** 
*Part, NAME=Upper_Skin
*Node
362, -3.3370543034313407, 3.68307692307693, 0.28691603600030985
55, -1.4707859193505424, 2.1388888888888893, 0.253955702074527
547, -1.854050005828056, 6.333333333333334, 0.24927402938327745
718, 0.9410355308636479, 11.433333333333326, 0.14079392735792076
590, 1.3953058583562425, 14.45555555555555, 0.12651581139409146
351, -2.486927512350068, 5.696923076923081, 0.2546289673127566
730, 1.1932455127157113, 12.188888888888885, 0.13145687452784058
157, 0.5271583833017142, 12.836923076923064, 0.16015663287506798
426, -2.0936990831747644, 1.1666666666666665, 0.29769479522163994
458, -3.142812624359593, 1.75, 0.3306423752157136
28, -3.6204956270871613, 2.9473684210526327, 0.32855997815815985
72, -1.7427987199409585, 0.19444444444444453, 0.2809232456431388
345, -2.0232219899421002, 6.795384615384619, 0.23701783893772757
339, -1.5595164675341335, 7.893846153846156, 0.21940671056269853
43, -2.163333333333334, 0.0, 0.32198266666666664
134, -1.2503794525954894, 8.626153846153846, 0.22766595831267922
140, -0.7866739301875225, 9.724615384615383, 0.21005482993765018
469, -3.5406970167862903, 1.9444444444444446, 0.3436291848342592
749, 1.3616761122223222, 13.322222222222214, 0.12618248521081404
550, -1.6273507594896164, 6.8999999999999995, 0.2407095025468226
** ... 760 like lines cut
*Element, TYPE=S4R
932, 10, 11, 237, 232
933, 232, 237, 238, 231
934, 231, 238, 239, 230
935, 230, 239, 240, 229
936, 229, 240, 241, 228
937, 228, 241, 242, 227
938, 227, 242, 243, 226
939, 226, 243, 244, 225
940, 225, 244, 245, 224
941, 224, 245, 246, 223
942, 223, 246, 247, 222
943, 222, 247, 248, 221
944, 221, 248, 249, 220
945, 220, 249, 250, 219
946, 219, 250, 251, 218
947, 218, 251, 252, 217
948, 217, 252, 253, 216
949, 216, 253, 254, 215
950, 215, 254, 255, 214
951, 214, 255, 256, 213
** ... 657 like lines cut
*Element, TYPE=S3R
642, 137, 136, 561
671, 109, 533, 534
672, 108, 107, 62
673, 107, 2, 62
674, 62, 63, 533
675, 63, 64, 533
677, 65, 66, 597
679, 67, 68, 596
680, 68, 69, 596
682, 70, 71, 595
386, 13, 1, 31
387, 31, 32, 363
390, 34, 35, 387
394, 38, 39, 384
398, 42, 43, 381
*ElSet, ELSET=Upper_Skin
932, 933, 934, 935, 936, 937, 938, 939, 
940, 941, 942, 943, 944, 945, 946, 947, 
948, 949, 950, 951, 952, 953, 954, 955, 
956, 957, 958, 959, 960, 961, 962, 963, 
964, 965, 966, 967, 968, 969, 970, 971, 
972, 973, 974, 975, 976, 977, 978, 979, 
980, 981, 982, 983, 984, 985, 986, 987, 
988, 989, 990, 991, 992, 993, 994, 995, 
996, 997, 998, 999, 1000, 1001, 1002, 1003, 
1004, 1005, 1006, 1007, 1008, 1009, 1010, 1011, 
1012, 1013, 1014, 1015, 1016, 1017, 1018, 1019, 
1020, 1021, 1022, 1023, 1024, 1025, 1026, 1027, 
1028, 1029, 1030, 1031, 1032, 1033, 1034, 1035, 
1036, 1037, 1038, 1039, 1040, 1041, 1042, 1043, 
1044, 1045, 1046, 1047, 1048, 1049, 1050, 1051, 
1052, 1053, 1054, 1055, 1056, 1057, 1058, 1059, 
571, 572, 573, 574, 575, 576, 577, 578, 
579, 580, 581, 582, 583, 584, 585, 586, 
587, 588, 589, 590, 591, 592, 593, 594, 
595, 596, 597, 598, 599, 600, 601, 602, 
** ... 67 like lines cut
*Shell Section, ELSET=Upper_Skin, MATERIAL=user-chosen_material
0.003
*End Part
*Part, NAME=lower_Skin
*Node
634, -0.7044810894618289, 8.411111111111111, -0.10804403478805405
214, 0.07389038350810351, 7.844444444444449, -0.0708023850185337
119, 0.6044426370363807, 13.02, -0.09160423024203047
588, -2.156315667612641, 5.577777777777781, -0.1452021091578718
377, -3.4255880704997947, 2.916666666666667, -0.183413414280736
72, -1.7427987199409585, 0.19444444444444453, -0.10431964202245504
596, -2.7608469911818116, 4.066666666666673, -0.1579229259513905
309, 0.7590111445057025, 13.386153846153844, -0.06818388712787195
682, 0.48776668460955597, 10.866666666666667, -0.07859954069583822
535, -2.066737796104689, 3.688888888888901, -0.12577201346424868
54, -1.4979871994095841, 1.9444444444444449, -0.10685642022455033
395, -3.53517048218092, 0.38888888888888906, -0.1984374372130084
181, 2.016969613973173, 14.077777777777776, -0.0413446173782434
671, 1.2272285079742073, 12.944444444444443, -0.0649443512102457
305, 1.0681481594443474, 14.118461538461537, -0.061343200899554876
70, -1.6683699767970244, 3.5, -0.10755166455072912
471, -1.9164786221840406, 2.1388888888888893, -0.12354601722544559
633, -0.6330859806767264, 8.6, -0.10662829330729585
602, 1.5801623916614629, 14.455555555555554, -0.06274030740379108
136, -0.7093896764528602, 9.907692307692308, -0.12067714671237803
** ... 760 like lines cut
*Element, TYPE=S4R
931, 10, 11, 237, 175
932, 175, 237, 238, 176
933, 176, 238, 239, 177
934, 177, 239, 240, 178
935, 178, 240, 241, 179
936, 179, 241, 242, 180
937, 180, 242, 243, 181
938, 181, 243, 244, 182
939, 182, 244, 245, 183
940, 183, 245, 246, 184
941, 184, 246, 247, 185
942, 185, 247, 248, 186
943, 186, 248, 249, 187
944, 187, 249, 250, 188
945, 188, 250, 251, 189
946, 189, 251, 252, 190
947, 190, 252, 253, 191
948, 191, 253, 254, 192
949, 192, 254, 255, 193
950, 193, 255, 256, 194
** ... 658 like lines cut
*Element, TYPE=S3R
609, 71, 70, 536
611, 69, 68, 535
612, 68, 67, 535
614, 66, 65, 534
616, 64, 63, 533
618, 62, 2, 170
619, 170, 169, 533
648, 141, 140, 570
386, 13, 1, 31
387, 31, 32, 363
390, 34, 35, 387
394, 38, 39, 384
398, 42, 43, 381
*ElSet, ELSET=lower_Skin
931, 932, 933, 934, 935, 936, 937, 938, 
939, 940, 941, 942, 943, 944, 945, 946, 
947, 948, 949, 950, 951, 952, 953, 954, 
955, 956, 957, 958, 959, 960, 961, 962, 
963, 964, 965, 966, 967, 968, 969, 970, 
971, 972, 973, 974, 975, 976, 977, 978, 
979, 980, 981, 982, 983, 984, 985, 986, 
987, 988, 989, 990, 991, 992, 993, 589, 
590, 591, 592, 593, 594, 595, 596, 597, 
598, 599, 600, 601, 602, 603, 604, 605, 
606, 607, 994, 995, 996, 997, 998, 999, 
1000, 1001, 1002, 1003, 1004, 1005, 1006, 1007, 
1008, 1009, 1010, 1011, 1012, 1013, 1014, 1015, 
1016, 1017, 1018, 1019, 1020, 1021, 1022, 1023, 
1024, 1025, 1026, 1027, 1028, 1029, 1030, 1031, 
1032, 1033, 1034, 1035, 1036, 1037, 1038, 1039, 
1040, 1041, 1042, 1043, 1044, 1045, 1046, 1047, 
1048, 1049, 1050, 1051, 1052, 1053, 1054, 1055, 
1056, 1057, 1058, 608, 609, 610, 611, 612, 
613, 614, 615, 616, 617, 618, 619, 620, 
** ... 67 like lines cut
*Shell Section, ELSET=lower_Skin, MATERIAL=user-chosen_material
0.003
*End Part
*Part, NAME=front_spar
*Node
37, -4.032809766929477, 1.8421052631578951, -0.21323481642639602
195, -3.483057580473057, 3.315789473684212, 0.14933609376278226
122, -2.564211766084731, 5.513846153846153, -0.16172126408228052
72, -1.4822322137994732, 8.076923076923077, 0.23647152250019376
85, -0.47753691524887854, 10.456923076923072, 0.19831407768763082
172, 1.3000009206483238, 14.667692307692288, -0.07621268622831724
50, -3.1824857959620205, 4.049230769230769, 0.3010456598753003
113, -3.259770049696682, 3.8661538461538463, -0.17711280809599392
45, -3.483057580473056, 3.3157894736842124, -0.18416666956751282
204, -4.101528790236529, 1.6578947368421058, 0.17585304688139103
173, 1.3772851743829848, 14.85076923076921, -0.07450251467123799
115, -3.105201542227359, 4.2323076923076925, -0.17369246498183538
170, 1.145432413179002, 14.301538461538442, -0.07963302934247578
18, -3.8953717203153713, 2.2105263157894743, 0.3535049836186199
25, -4.720000000000001, 0.0, 0.2588625000000001
98, 0.5271583833017142, 12.836923076923064, 0.16015663287506798
13, -4.238966836850633, 1.2894736842105265, 0.3846862404441949
175, 1.5318536818523067, 15.216923076923056, -0.07108217155707945
124, -2.409643258615408, 5.879999999999999, -0.15830092096812198
22, -3.6204956270871613, 2.9473684210526327, 0.32855997815815985
** ... 191 like lines cut
*Element, TYPE=S4R
177, 1, 25, 177, 7
179, 26, 27, 176, 177
180, 27, 3, 28, 176
181, 4, 47, 178, 45
182, 45, 178, 179, 44
183, 44, 179, 180, 43
184, 43, 180, 181, 42
185, 42, 181, 182, 41
186, 41, 182, 183, 40
187, 40, 183, 184, 39
188, 39, 184, 185, 38
189, 38, 185, 186, 37
190, 37, 186, 187, 36
191, 36, 187, 188, 35
192, 35, 188, 189, 34
193, 34, 189, 190, 33
194, 33, 190, 191, 32
195, 32, 191, 192, 31
196, 31, 192, 193, 30
197, 30, 193, 194, 29
** ... 102 like lines cut
*Element, TYPE=S3R
178, 25, 26, 177
235, 2, 46, 48
237, 47, 4, 112
*ElSet, ELSET=front_spar
177, 178, 179, 180, 181, 182, 183, 184, 
185, 186, 187, 188, 189, 190, 191, 192, 
193, 194, 195, 196, 197, 198, 199, 200, 
201, 202, 203, 204, 205, 206, 207, 208, 
209, 210, 211, 212, 213, 214, 215, 216, 
217, 218, 219, 220, 221, 222, 223, 224, 
225, 226, 227, 228, 229, 230, 231, 232, 
233, 234, 235, 236, 237, 238, 239, 240, 
241, 242, 243, 244, 245, 246, 247, 248, 
249, 250, 251, 252, 253, 254, 255, 256, 
257, 258, 259, 260, 261, 262, 263, 264, 
265, 266, 267, 268, 269, 270, 271, 272, 
273, 274, 275, 276, 277, 278, 279, 280, 
281, 282, 283, 284, 285, 286, 287, 288, 
289, 290, 291, 292, 293, 294, 295, 296, 
297, 298, 299, 300, 301
*Shell Section, ELSET=front_spar, MATERIAL=user-chosen_material
0.05
*End Part
*Part, NAME=rear_spar
*Node
91, 1.545920103557395, 12.566666666666656, 0.11736305275630937
176, -1.4979871994095841, 1.9444444444444453, 0.07589801810341892
142, 0.8982270267357066, 10.488888888888884, -0.058305150262046926
12, -1.6067923196457505, 1.1666666666666667, 0.27743947385883294
7, -1.7427987199409585, 0.19444444444444453, 0.3009232456431388
100, 2.07585080277514, 14.266666666666648, 0.09791642110252388
66, 0.07389038350810173, 7.844444444444445, 0.1713814740168246
35, -1.4979871994095841, 1.9444444444444449, -0.10685642022455036
14, -1.5523897595276672, 1.5555555555555558, 0.26804596514511053
27, -1.715597439881917, 0.38888888888888906, -0.12237928404491011
178, -1.5523897595276672, 1.5555555555555558, 0.07865441448273514
170, -1.3347795190553344, 3.111111111111112, 0.06762882896547029
46, -1.1037333925313357, 4.066666666666667, 0.2145962110252369
78, 0.7804646491317635, 10.111111111111107, 0.14545263181177726
154, 1.6048012923593669, 12.755555555555542, -0.04759323475648685
3, -1.77, 0.0, -0.12626000000000004
175, -1.4707859193505426, 2.1388888888888897, 0.0745198199137608
157, 1.7814448587652818, 13.322222222222209, -0.04491525588009683
87, 1.3103953483495083, 11.811111111111103, 0.1260060001579918
99, 2.0169696139731683, 14.077777777777762, 0.10007715795294449
** ... 164 like lines cut
*Element, TYPE=S3R
206, 2, 43, 44
170, 24, 25, 168
*Element, TYPE=S4R
207, 43, 4, 106, 44
208, 6, 5, 105, 167
209, 167, 105, 104, 166
210, 166, 104, 103, 165
211, 165, 103, 102, 164
212, 164, 102, 101, 163
213, 163, 101, 100, 162
214, 162, 100, 99, 161
215, 161, 99, 98, 160
216, 160, 98, 97, 159
217, 159, 97, 96, 158
218, 158, 96, 95, 157
219, 157, 95, 94, 156
220, 156, 94, 93, 155
221, 155, 93, 92, 154
222, 154, 92, 91, 153
223, 153, 91, 90, 152
224, 152, 90, 89, 151
225, 151, 89, 88, 150
226, 150, 88, 87, 149
** ... 79 like lines cut
*ElSet, ELSET=rear_spar
206, 207, 208, 209, 210, 211, 212, 213, 
214, 215, 216, 217, 218, 219, 220, 221, 
222, 223, 224, 225, 226, 227, 228, 229, 
230, 231, 232, 233, 234, 235, 236, 237, 
238, 239, 240, 241, 242, 243, 244, 245, 
246, 247, 248, 249, 250, 251, 252, 253, 
254, 255, 256, 257, 258, 259, 260, 261, 
262, 263, 264, 265, 266, 267, 268, 269, 
169, 170, 171, 172, 173, 174, 175, 176, 
177, 178, 179, 180, 181, 182, 183, 184, 
185, 186, 187, 188, 189, 190, 191, 192, 
193, 194, 195, 196, 197, 198, 199, 200, 
201, 202, 203, 204, 205
*Shell Section, ELSET=rear_spar, MATERIAL=user-chosen_material
0.05
*End Part
*Part, NAME=Upper_Skin_centre_section
*Node
220, -2.753333333333334, -0.19230769230769218, 0.34652666666666665
21, -3.7366666666666672, 0.0, 0.38743333333333335
145, -3.7366666666666672, -1.1538461538461537, 0.3874333333333333
38, -1.77, -1.5384615384615385, 0.30562
35, -1.77, -0.9615384615384615, 0.30562
10, -4.720000000000001, -1.153846153846154, 0.42834
207, -2.5566666666666666, -0.38461538461538464, 0.33834533333333333
121, -2.95, -1.5384615384615385, 0.354708
72, -4.326666666666667, -2.115384615384615, 0.4119773333333333
12, -4.720000000000001, -1.5384615384615385, 0.42834
79, -2.95, -2.115384615384615, 0.354708
155, -4.523333333333334, -0.9615384615384615, 0.4201586666666667
213, -4.130000000000001, -0.19230769230769218, 0.40379600000000004
215, -3.7366666666666672, -0.19230769230769218, 0.38743333333333335
29, -2.163333333333334, 0.0, 0.32198266666666664
146, -3.5400000000000005, -1.153846153846154, 0.379252
98, -1.9666666666666688, -1.923076923076923, 0.31380133333333343
134, -3.1466666666666674, -1.3461538461538463, 0.36288933333333334
16, -4.720000000000001, -2.3076923076923075, 0.42834
15, -4.720000000000001, -2.115384615384615, 0.42834
** ... 204 like lines cut
*Element, TYPE=S4R
57, 2, 16, 57, 43
58, 43, 57, 58, 44
59, 44, 58, 59, 45
60, 45, 59, 60, 46
61, 46, 60, 61, 47
62, 47, 61, 62, 48
63, 48, 62, 63, 49
64, 49, 63, 64, 50
65, 50, 64, 65, 51
66, 51, 65, 66, 52
67, 52, 66, 67, 53
68, 53, 67, 68, 54
69, 54, 68, 69, 55
70, 55, 69, 70, 56
71, 56, 70, 42, 4
72, 16, 15, 71, 57
73, 57, 71, 72, 58
74, 58, 72, 73, 59
75, 59, 73, 74, 60
76, 60, 74, 75, 61
** ... 175 like lines cut
*ElSet, ELSET=Upper_Skin_centre_section
57, 58, 59, 60, 61, 62, 63, 64, 
65, 66, 67, 68, 69, 70, 71, 72, 
73, 74, 75, 76, 77, 78, 79, 80, 
81, 82, 83, 84, 85, 86, 87, 88, 
89, 90, 91, 92, 93, 94, 95, 96, 
97, 98, 99, 100, 101, 102, 103, 104, 
105, 106, 107, 108, 109, 110, 111, 112, 
113, 114, 115, 116, 117, 118, 119, 120, 
121, 122, 123, 124, 125, 126, 127, 128, 
129, 130, 131, 132, 133, 134, 135, 136, 
137, 138, 139, 140, 141, 142, 143, 144, 
145, 146, 147, 148, 149, 150, 151, 152, 
153, 154, 155, 156, 157, 158, 159, 160, 
161, 162, 163, 164, 165, 166, 167, 168, 
169, 170, 171, 172, 173, 174, 175, 176, 
177, 178, 179, 180, 181, 182, 183, 184, 
185, 186, 187, 188, 189, 190, 191, 192, 
193, 194, 195, 196, 197, 198, 199, 200, 
201, 202, 203, 204, 205, 206, 207, 208, 
209, 210, 211, 212, 213, 214, 215, 216, 
** ... 5 like lines cut
*Shell Section, ELSET=Upper_Skin_centre_section, MATERIAL=user-chosen_material
0.003
*End Part
*Part, NAME=Lower_Skin_centre_section
*Node
173, -3.7366666666666672, -0.7692307692307693, -0.20846666666666663
122, -2.753333333333333, -1.5384615384615385, -0.1673633333333333
171, -4.130000000000001, -0.7692307692307693, -0.224908
120, -3.1466666666666665, -1.5384615384615385, -0.18380466666666667
13, -4.720000000000001, -1.7307692307692308, -0.24957000000000001
127, -4.523333333333334, -1.3461538461538463, -0.2413493333333333
43, -4.523333333333334, -2.5, -0.24134933333333333
63, -3.3433333333333337, -2.3076923076923075, -0.19202533333333333
8, -4.720000000000001, -0.7692307692307693, -0.24957000000000001
197, -4.523333333333334, -0.38461538461538464, -0.24134933333333333
84, -1.9666666666666677, -2.1153846153846154, -0.13448066666666672
91, -3.3433333333333337, -1.923076923076923, -0.19202533333333333
153, -2.163333333333333, -1.153846153846154, -0.14270133333333335
203, -3.3433333333333337, -0.38461538461538464, -0.19202533333333333
135, -2.95, -1.3461538461538463, -0.17558400000000002
112, -1.9666666666666672, -1.7307692307692308, -0.1344806666666667
31, -1.77, -0.19230769230769218, -0.12626
3, -1.77, 0.0, -0.12626
22, -3.5400000000000005, 0.0, -0.20024599999999998
133, -3.3433333333333337, -1.3461538461538463, -0.19202533333333333
** ... 204 like lines cut
*Element, TYPE=S4R
57, 2, 16, 57, 43
58, 43, 57, 58, 44
59, 44, 58, 59, 45
60, 45, 59, 60, 46
61, 46, 60, 61, 47
62, 47, 61, 62, 48
63, 48, 62, 63, 49
64, 49, 63, 64, 50
65, 50, 64, 65, 51
66, 51, 65, 66, 52
67, 52, 66, 67, 53
68, 53, 67, 68, 54
69, 54, 68, 69, 55
70, 55, 69, 70, 56
71, 56, 70, 42, 4
72, 16, 15, 71, 57
73, 57, 71, 72, 58
74, 58, 72, 73, 59
75, 59, 73, 74, 60
76, 60, 74, 75, 61
** ... 175 like lines cut
*ElSet, ELSET=Lower_Skin_centre_section
57, 58, 59, 60, 61, 62, 63, 64, 
65, 66, 67, 68, 69, 70, 71, 72, 
73, 74, 75, 76, 77, 78, 79, 80, 
81, 82, 83, 84, 85, 86, 87, 88, 
89, 90, 91, 92, 93, 94, 95, 96, 
97, 98, 99, 100, 101, 102, 103, 104, 
105, 106, 107, 108, 109, 110, 111, 112, 
113, 114, 115, 116, 117, 118, 119, 120, 
121, 122, 123, 124, 125, 126, 127, 128, 
129, 130, 131, 132, 133, 134, 135, 136, 
137, 138, 139, 140, 141, 142, 143, 144, 
145, 146, 147, 148, 149, 150, 151, 152, 
153, 154, 155, 156, 157, 158, 159, 160, 
161, 162, 163, 164, 165, 166, 167, 168, 
169, 170, 171, 172, 173, 174, 175, 176, 
177, 178, 179, 180, 181, 182, 183, 184, 
185, 186, 187, 188, 189, 190, 191, 192, 
193, 194, 195, 196, 197, 198, 199, 200, 
201, 202, 203, 204, 205, 206, 207, 208, 
209, 210, 211, 212, 213, 214, 215, 216, 
** ... 5 like lines cut
*Shell Section, ELSET=Lower_Skin_centre_section, MATERIAL=user-chosen_material
0.003
*End Part
*Part, NAME=Front_spar_centre_section
*Node
43, -4.720000000000001, -1.923076923076923, -0.08009250000000007
21, -4.720000000000001, -0.38461538461538464, -0.24957000000000001
70, -4.720000000000001, -0.19230769230769218, -0.08009250000000007
58, -4.720000000000001, -0.9615384615384617, -0.08009250000000007
4, -4.720000000000001, -2.5, -0.24957000000000001
36, -4.720000000000001, -2.3076923076923075, 0.08938499999999999
39, -4.720000000000001, -2.115384615384615, 0.08938499999999999
10, -4.720000000000001, -1.153846153846154, 0.42834
64, -4.720000000000001, -0.5769230769230771, -0.08009250000000007
28, -4.720000000000001, -1.7307692307692308, -0.24957000000000001
67, -4.720000000000001, -0.38461538461538464, -0.08009250000000007
47, -4.720000000000001, -1.5384615384615385, 0.2588625000000001
56, -4.720000000000001, -0.9615384615384615, 0.2588625000000001
51, -4.720000000000001, -1.3461538461538463, 0.08938499999999999
34, -4.720000000000001, -2.5, -0.08009250000000007
69, -4.720000000000001, -0.19230769230769218, 0.08938499999999985
9, -4.720000000000001, -0.9615384615384615, 0.42834
17, -4.720000000000001, 0.0, 0.2588625000000001
42, -4.720000000000001, -1.923076923076923, 0.08938499999999999
12, -4.720000000000001, -1.5384615384615385, 0.42834
** ... 50 like lines cut
*Element, TYPE=S4R
35, 2, 16, 35, 32
36, 32, 35, 36, 33
37, 33, 36, 37, 34
38, 34, 37, 31, 4
39, 16, 15, 38, 35
40, 35, 38, 39, 36
41, 36, 39, 40, 37
42, 37, 40, 30, 31
43, 15, 14, 41, 38
44, 38, 41, 42, 39
45, 39, 42, 43, 40
46, 40, 43, 29, 30
47, 14, 13, 44, 41
48, 41, 44, 45, 42
49, 42, 45, 46, 43
50, 43, 46, 28, 29
51, 13, 12, 47, 44
52, 44, 47, 48, 45
53, 45, 48, 49, 46
54, 46, 49, 27, 28
** ... 32 like lines cut
*ElSet, ELSET=Front_spar_centre_section
35, 36, 37, 38, 39, 40, 41, 42, 
43, 44, 45, 46, 47, 48, 49, 50, 
51, 52, 53, 54, 55, 56, 57, 58, 
59, 60, 61, 62, 63, 64, 65, 66, 
67, 68, 69, 70, 71, 72, 73, 74, 
75, 76, 77, 78, 79, 80, 81, 82, 
83, 84, 85, 86
*Shell Section, ELSET=Front_spar_centre_section, MATERIAL=user-chosen_material
0.01
*End Part
*Part, NAME=Rear_spar_centre_section
*Node
45, -1.77, -1.1538461538461537, 0.16166000000000003
50, -1.77, -0.7692307692307693, 0.017699999999999994
12, -1.77, -1.5384615384615385, 0.30562
9, -1.77, -0.9615384615384615, 0.30562
33, -1.77, -2.3076923076923075, 0.16166000000000003
10, -1.77, -1.153846153846154, 0.30562
55, -1.77, -0.19230769230769218, 0.16166000000000003
17, -1.77, 0.0, 0.16166000000000003
43, -1.77, -1.3461538461538463, 0.16166000000000003
53, -1.77, -0.38461538461538464, 0.16166000000000003
29, -1.77, -2.115384615384615, -0.12626000000000004
31, -1.77, -2.5, 0.16166000000000003
51, -1.77, -0.5769230769230771, 0.16166000000000003
15, -1.77, -2.115384615384615, 0.30562
48, -1.77, -0.9615384615384615, 0.017699999999999994
39, -1.77, -1.7307692307692308, 0.16166000000000003
30, -1.77, -2.3076923076923075, -0.12626000000000004
46, -1.77, -1.153846153846154, 0.017699999999999994
19, -1.77, -0.19230769230769218, -0.12626000000000004
3, -1.77, 0.0, -0.12626000000000004
** ... 36 like lines cut
*Element, TYPE=S4R
33, 2, 16, 33, 31
34, 31, 33, 34, 32
35, 32, 34, 30, 4
36, 16, 15, 35, 33
37, 33, 35, 36, 34
38, 34, 36, 29, 30
39, 15, 14, 37, 35
40, 35, 37, 38, 36
41, 36, 38, 28, 29
42, 14, 13, 39, 37
43, 37, 39, 40, 38
44, 38, 40, 27, 28
45, 13, 12, 41, 39
46, 39, 41, 42, 40
47, 40, 42, 26, 27
48, 12, 11, 43, 41
49, 41, 43, 44, 42
50, 42, 44, 25, 26
51, 11, 10, 45, 43
52, 43, 45, 46, 44
** ... 19 like lines cut
*ElSet, ELSET=Rear_spar_centre_section
33, 34, 35, 36, 37, 38, 39, 40, 
41, 42, 43, 44, 45, 46, 47, 48, 
49, 50, 51, 52, 53, 54, 55, 56, 
57, 58, 59, 60, 61, 62, 63, 64, 
65, 66, 67, 68, 69, 70, 71
*Shell Section, ELSET=Rear_spar_centre_section, MATERIAL=user-chosen_material
0.01
*End Part
*Part, NAME=Ribs_centre_section
*Node
83, -3.9333333333333336, -0.5, -0.21668733333333334
19, -1.77, -2.0, -0.12626
201, -1.9666666666666666, 0.0, 0.014946666666666678
11, -1.77, -1.0, -0.12626
281, -3.736666666666667, -1.5, -0.009833333333333352
192, -2.753333333333334, 0.0, 0.17523000000000008
230, -2.1633333333333336, -0.5, 0.167088
33, -2.163333333333334, 0.0, 0.32198266666666664
210, -3.7366666666666672, 0.0, -0.009833333333333402
44, -3.7366666666666672, 0.0, -0.20846666666666663
175, -2.5566666666666666, -2.0, -0.15914266666666665
109, -2.5566666666666666, -1.0, -0.15914266666666665
174, -2.3599999999999994, -2.0, -0.150922
290, -2.9500000000000006, -1.5, 0.177944
65, -4.13, -0.5, 0.40379599999999993
108, -2.3599999999999994, -1.0, -0.150922
255, -4.13, -1.0, -0.015340000000000057
274, -2.3599999999999994, -1.5, 0.009440000000000006
151, -4.326666666666666, -1.5, -0.23312866666666665
67, -4.523333333333333, -0.5, 0.4201586666666666
** ... 305 like lines cut
*Element, TYPE=S4R
232, 6, 72, 215, 67
233, 72, 71, 214, 215
235, 70, 8, 86, 214
236, 7, 68, 216, 73
237, 73, 216, 217, 74
238, 74, 217, 218, 75
239, 75, 218, 219, 76
240, 76, 219, 220, 77
241, 77, 220, 221, 78
242, 78, 221, 222, 79
243, 79, 222, 223, 80
244, 80, 223, 224, 81
245, 81, 224, 225, 82
246, 82, 225, 226, 83
247, 83, 226, 227, 84
248, 84, 227, 228, 85
249, 85, 228, 214, 86
250, 68, 69, 229, 216
251, 216, 229, 230, 217
252, 217, 230, 231, 218
** ... 205 like lines cut
*Element, TYPE=S3R
234, 71, 70, 214
187, 37, 36, 187
372, 170, 169, 298
326, 137, 136, 270
280, 104, 103, 242
*ElSet, ELSET=Ribs_centre_section
232, 233, 234, 235, 236, 237, 238, 239, 
240, 241, 242, 243, 244, 245, 246, 247, 
248, 249, 250, 251, 252, 253, 254, 255, 
256, 257, 258, 259, 260, 261, 262, 263, 
264, 265, 266, 267, 268, 269, 270, 271, 
272, 273, 274, 275, 276, 277, 186, 187, 
188, 189, 190, 191, 192, 193, 194, 195, 
196, 197, 198, 199, 200, 201, 202, 203, 
204, 205, 206, 207, 208, 209, 210, 211, 
212, 213, 214, 215, 216, 217, 218, 219, 
220, 221, 222, 223, 224, 225, 226, 227, 
228, 229, 230, 231, 370, 371, 372, 373, 
374, 375, 376, 377, 378, 379, 380, 381, 
382, 383, 384, 385, 386, 387, 388, 389, 
390, 391, 392, 393, 394, 395, 396, 397, 
398, 399, 400, 401, 402, 403, 404, 405, 
406, 407, 408, 409, 410, 411, 412, 413, 
414, 415, 324, 325, 326, 327, 328, 329, 
330, 331, 332, 333, 334, 335, 336, 337, 
338, 339, 340, 341, 342, 343, 344, 345, 
** ... 9 like lines cut
*Shell Section, ELSET=Ribs_centre_section, MATERIAL=user-chosen_material
0.005
*End Part
** 
** ASSEMBLY
** 
*Assembly, NAME=Assembly
*Instance, NAME=Upper_Skin-instance, PART=Upper_Skin
*End Instance
*Instance, NAME=lower_Skin-instance, PART=lower_Skin
*End Instance
*Instance, NAME=front_spar-instance, PART=front_spar
*End Instance
*Instance, NAME=rear_spar-instance, PART=rear_spar
*End Instance
*Instance, NAME=Upper_Skin_centre_section-instance, PART=Upper_Skin_centre_section
*End Instance
*Instance, NAME=Lower_Skin_centre_section-instance, PART=Lower_Skin_centre_section
*End Instance
*Instance, NAME=Front_spar_centre_section-instance, PART=Front_spar_centre_section
*End Instance
*Instance, NAME=Rear_spar_centre_section-instance, PART=Rear_spar_centre_section
*End Instance
*Instance, NAME=Ribs_centre_section-instance, PART=Ribs_centre_section
*End Instance
*ElSet, ELSET=None-SET, INSTANCE=Upper_Skin-instance
571, 572, 573, 574, 575, 576, 577, 578, 
579, 580, 581, 582, 583, 584, 585, 586, 
587, 588
*ElSet, ELSET=None-SET-1, INSTANCE=Upper_Skin-instance
589, 590, 591, 592, 593, 594, 595, 596, 
597, 598, 599, 600, 601, 602, 603, 604, 
605, 606, 607
*ElSet, ELSET=None-SET-2, INSTANCE=Upper_Skin-instance
932, 933, 934, 935, 936, 937, 938, 939, 
940, 941, 942, 943, 944, 945, 946, 947, 
948, 949, 950, 951, 952, 953, 954, 955, 
956, 957, 958, 959, 960, 961, 962, 963, 
964, 965, 966, 967, 968, 969, 970, 971, 
972, 973, 974, 975, 976, 977, 978, 979, 
980, 981, 982, 983, 984, 985, 986, 987, 
988, 989, 990, 991, 992, 993, 994
*ElSet, ELSET=None-SET-3, INSTANCE=Upper_Skin-instance
995, 996, 997, 998, 999, 1000, 1001, 1002, 
1003, 1004, 1005, 1006, 1007, 1008, 1009, 1010, 
1011, 1012, 1013, 1014, 1015, 1016, 1017, 1018, 
1019, 1020, 1021, 1022, 1023, 1024, 1025, 1026, 
1027, 1028, 1029, 1030, 1031, 1032, 1033, 1034, 
1035, 1036, 1037, 1038, 1039, 1040, 1041, 1042, 
1043, 1044, 1045, 1046, 1047, 1048, 1049, 1050, 
1051, 1052, 1053, 1054, 1055, 1056, 1057, 1058, 
1059
*ElSet, ELSET=None-SET-4, INSTANCE=lower_Skin-instance
571, 572, 573, 574, 575, 576, 577, 578, 
579, 580, 581, 582, 583, 584, 585, 586, 
587, 588
*ElSet, ELSET=None-SET-5, INSTANCE=lower_Skin-instance
589, 590, 591, 592, 593, 594, 595, 596, 
597, 598, 599, 600, 601, 602, 603, 604, 
605, 606, 607
*ElSet, ELSET=None-SET-6, INSTANCE=lower_Skin-instance
931, 932, 933, 934, 935, 936, 937, 938, 
939, 940, 941, 942, 943, 944, 945, 946, 
947, 948, 949, 950, 951, 952, 953, 954, 
955, 956, 957, 958, 959, 960, 961, 962, 
963, 964, 965, 966, 967, 968, 969, 970, 
971, 972, 973, 974, 975, 976, 977, 978, 
979, 980, 981, 982, 983, 984, 985, 986, 
987, 988, 989, 990, 991, 992, 993
*ElSet, ELSET=None-SET-7, INSTANCE=lower_Skin-instance
994, 995, 996, 997, 998, 999, 1000, 1001, 
1002, 1003, 1004, 1005, 1006, 1007, 1008, 1009, 
1010, 1011, 1012, 1013, 1014, 1015, 1016, 1017, 
1018, 1019, 1020, 1021, 1022, 1023, 1024, 1025, 
1026, 1027, 1028, 1029, 1030, 1031, 1032, 1033, 
1034, 1035, 1036, 1037, 1038, 1039, 1040, 1041, 
1042, 1043, 1044, 1045, 1046, 1047, 1048, 1049, 
1050, 1051, 1052, 1053, 1054, 1055, 1056, 1057, 
1058
*ElSet, ELSET=None-ELSET-E4, INSTANCE=rear_spar-instance
169
*ElSet, ELSET=None-ELSET-E2, INSTANCE=rear_spar-instance
205, 204, 203, 202, 201, 200, 199, 198, 
197, 196, 195, 194, 193, 192, 191, 190, 
189
*ElSet, ELSET=None-ELSET-E1, INSTANCE=rear_spar-instance
169, 170, 171
*ElSet, ELSET=None-ELSET-E2-1, INSTANCE=rear_spar-instance
171
*ElSet, ELSET=None-ELSET-E4-1, INSTANCE=rear_spar-instance
188, 187, 186, 185, 184, 183, 182, 181, 
180, 179, 178, 177, 176, 175, 174, 173, 
172
*ElSet, ELSET=None-ELSET-E3, INSTANCE=rear_spar-instance
206
*ElSet, ELSET=None-ELSET-E2-2, INSTANCE=rear_spar-instance
269, 268, 267, 266, 265, 264, 263, 262, 
261, 260, 259, 258, 257, 256, 255, 254, 
253, 252, 251, 250, 249, 248, 247, 246, 
245, 244, 243, 242, 241, 240, 239, 238, 
237, 236, 235, 234, 233, 232, 231, 230, 
229, 228, 227, 226, 225, 224, 223, 222, 
221, 220, 219, 218, 217, 216, 215, 214, 
213, 212, 211, 210, 209, 208
*ElSet, ELSET=None-ELSET-E2-3, INSTANCE=rear_spar-instance
207
*ElSet, ELSET=None-ELSET-E4-2, INSTANCE=rear_spar-instance
269, 268, 267, 266, 265, 264, 263, 262, 
261, 260, 259, 258, 257, 256, 255, 254, 
253, 252, 251, 250, 249, 248, 247, 246, 
245, 244, 243, 242, 241, 240, 239, 238, 
237, 236, 235, 234, 233, 232, 231, 230, 
229, 228, 227, 226, 225, 224, 223, 222, 
221, 220, 219, 218, 217, 216, 215, 214, 
213, 212, 211, 210, 209, 208
*ElSet, ELSET=None-ELSET-E4-3, INSTANCE=front_spar-instance
177
*ElSet, ELSET=None-ELSET-E2-4, INSTANCE=front_spar-instance
234, 233, 232, 231, 230, 229, 228, 227, 
226, 225, 224, 223, 222, 221, 220, 219, 
218, 217
*ElSet, ELSET=None-ELSET-E1-1, INSTANCE=front_spar-instance
177, 178, 179, 180
*ElSet, ELSET=None-ELSET-E2-5, INSTANCE=front_spar-instance
180
*ElSet, ELSET=None-ELSET-E4-4, INSTANCE=front_spar-instance
198, 197, 196, 195, 194, 193, 192, 191, 
190, 189, 188, 187, 186, 185, 184, 183, 
182, 181
*ElSet, ELSET=None-ELSET-E3-1, INSTANCE=front_spar-instance
235
*ElSet, ELSET=None-ELSET-E2-6, INSTANCE=front_spar-instance
301, 300, 299, 298, 297, 296, 295, 294, 
293, 292, 291, 290, 289, 288, 287, 286, 
285, 284, 283, 282, 281, 280, 279, 278, 
277, 276, 275, 274, 273, 272, 271, 270, 
269, 268, 267, 266, 265, 264, 263, 262, 
261, 260, 259, 258, 257, 256, 255, 254, 
253, 252, 251, 250, 249, 248, 247, 246, 
245, 244, 243, 242, 241, 240, 239, 238
*ElSet, ELSET=None-ELSET-E2-7, INSTANCE=front_spar-instance
237
*ElSet, ELSET=None-ELSET-E4-5, INSTANCE=front_spar-instance
301, 300, 299, 298, 297, 296, 295, 294, 
293, 292, 291, 290, 289, 288, 287, 286, 
285, 284, 283, 282, 281, 280, 279, 278, 
277, 276, 275, 274, 273, 272, 271, 270, 
269, 268, 267, 266, 265, 264, 263, 262, 
261, 260, 259, 258, 257, 256, 255, 254, 
253, 252, 251, 250, 249, 248, 247, 246, 
245, 244, 243, 242, 241, 240, 239, 238
*ElSet, ELSET=None-ELSET-E1-2, INSTANCE=Front_spar_centre_section-instance
83, 79, 75, 71, 67, 63, 59, 55, 
51, 47, 43, 39, 35
*ElSet, ELSET=None-ELSET-E3-2, INSTANCE=Front_spar_centre_section-instance
86, 82, 78, 74, 70, 66, 62, 58, 
54, 50, 46, 42, 38
*ElSet, ELSET=None-ELSET-E1-3, INSTANCE=Rear_spar_centre_section-instance
69, 66, 63, 60, 57, 54, 51, 48, 
45, 42, 39, 36, 33
*ElSet, ELSET=None-ELSET-E3-3, INSTANCE=Rear_spar_centre_section-instance
71, 68, 65, 62, 59, 56, 53, 50, 
47, 44, 41, 38, 35
*ElSet, ELSET=None-ELSET-E1-4, INSTANCE=Upper_Skin_centre_section-instance
237, 222, 207, 192, 177, 162, 147, 132, 
117, 102, 87, 72, 57
*ElSet, ELSET=None-ELSET-E3-4, INSTANCE=Upper_Skin_centre_section-instance
251, 236, 221, 206, 191, 176, 161, 146, 
131, 116, 101, 86, 71
*ElSet, ELSET=None-ELSET-E1-5, INSTANCE=Lower_Skin_centre_section-instance
237, 222, 207, 192, 177, 162, 147, 132, 
117, 102, 87, 72, 57
*ElSet, ELSET=None-ELSET-E3-5, INSTANCE=Lower_Skin_centre_section-instance
251, 236, 221, 206, 191, 176, 161, 146, 
131, 116, 101, 86, 71
*ElSet, ELSET=None-SET-8, INSTANCE=Upper_Skin_centre_section-instance
57, 58, 59, 60, 61, 62, 63, 64, 
65, 66, 67, 68, 69, 70, 71, 72, 
73, 74, 75, 76, 77, 78, 79, 80, 
81, 82, 83, 84, 85, 86, 87, 88, 
89, 90, 91, 92, 93, 94, 95, 96, 
97, 98, 99, 100, 101, 102, 103, 104, 
105, 106, 107, 108, 109, 110, 111, 112, 
113, 114, 115, 116, 117, 118, 119, 120, 
121, 122, 123, 124, 125, 126, 127, 128, 
129, 130, 131, 132, 133, 134, 135, 136, 
137, 138, 139, 140, 141, 142, 143, 144, 
145, 146, 147, 148, 149, 150, 151, 152, 
153, 154, 155, 156, 157, 158, 159, 160, 
161, 162, 163, 164, 165, 166, 167, 168, 
169, 170, 171, 172, 173, 174, 175, 176, 
177, 178, 179, 180, 181, 182, 183, 184, 
185, 186, 187, 188, 189, 190, 191, 192, 
193, 194, 195, 196, 197, 198, 199, 200, 
201, 202, 203, 204, 205, 206, 207, 208, 
209, 210, 211, 212, 213, 214, 215, 216, 
** ... 5 like lines cut
*ElSet, ELSET=None-SET-9, INSTANCE=Lower_Skin_centre_section-instance
57, 58, 59, 60, 61, 62, 63, 64, 
65, 66, 67, 68, 69, 70, 71, 72, 
73, 74, 75, 76, 77, 78, 79, 80, 
81, 82, 83, 84, 85, 86, 87, 88, 
89, 90, 91, 92, 93, 94, 95, 96, 
97, 98, 99, 100, 101, 102, 103, 104, 
105, 106, 107, 108, 109, 110, 111, 112, 
113, 114, 115, 116, 117, 118, 119, 120, 
121, 122, 123, 124, 125, 126, 127, 128, 
129, 130, 131, 132, 133, 134, 135, 136, 
137, 138, 139, 140, 141, 142, 143, 144, 
145, 146, 147, 148, 149, 150, 151, 152, 
153, 154, 155, 156, 157, 158, 159, 160, 
161, 162, 163, 164, 165, 166, 167, 168, 
169, 170, 171, 172, 173, 174, 175, 176, 
177, 178, 179, 180, 181, 182, 183, 184, 
185, 186, 187, 188, 189, 190, 191, 192, 
193, 194, 195, 196, 197, 198, 199, 200, 
201, 202, 203, 204, 205, 206, 207, 208, 
209, 210, 211, 212, 213, 214, 215, 216, 
** ... 5 like lines cut
*ElSet, ELSET=None-SET-10, INSTANCE=Front_spar_centre_section-instance
35, 36, 37, 38, 39, 40, 41, 42, 
43, 44, 45, 46, 47, 48, 49, 50, 
51, 52, 53, 54, 55, 56, 57, 58, 
59, 60, 61, 62, 63, 64, 65, 66, 
67, 68, 69, 70, 71, 72, 73, 74, 
75, 76, 77, 78, 79, 80, 81, 82, 
83, 84, 85, 86
*ElSet, ELSET=None-SET-11, INSTANCE=Rear_spar_centre_section-instance
33, 34, 35, 36, 37, 38, 39, 40, 
41, 42, 43, 44, 45, 46, 47, 48, 
49, 50, 51, 52, 53, 54, 55, 56, 
57, 58, 59, 60, 61, 62, 63, 64, 
65, 66, 67, 68, 69, 70, 71
*ElSet, ELSET=None-ELSET-E2-8, INSTANCE=Upper_Skin_centre_section-instance
237, 238, 239, 240, 241, 242, 243, 244, 
245, 246, 247, 248, 249, 250, 251
*ElSet, ELSET=None-ELSET-E2-9, INSTANCE=Lower_Skin_centre_section-instance
237, 238, 239, 240, 241, 242, 243, 244, 
245, 246, 247, 248, 249, 250, 251
*ElSet, ELSET=None-ELSET-E2-10, INSTANCE=Rear_spar_centre_section-instance
69, 70, 71
*ElSet, ELSET=None-ELSET-E2-11, INSTANCE=Front_spar_centre_section-instance
83, 84, 85, 86
*ElSet, ELSET=None-SET-12, INSTANCE=Upper_Skin-instance
368, 369, 370, 371, 372, 373, 374, 375, 
376, 377, 378, 379, 380, 381, 382, 383, 
384, 385, 386, 387, 388, 389, 390, 391, 
392, 393, 394, 395, 396, 397, 398, 399, 
400, 401, 402, 403, 404, 405, 406, 407, 
408, 409, 410, 411, 412, 413, 414, 415, 
416, 417, 418, 419, 420, 421, 422, 423, 
424, 425, 426, 427, 428, 429, 430, 431, 
432, 433, 434, 435, 436, 437, 438, 439, 
440, 441, 442, 443, 444, 445, 446, 447, 
448, 449, 450, 451, 452, 453, 454, 455, 
456, 457, 458, 459, 460, 461, 462, 463, 
464, 465, 466, 467, 468, 469, 470, 471, 
472, 473, 474, 475, 476, 477, 478, 479, 
480, 481, 482, 483, 484, 485, 486, 487, 
488, 489, 490, 491, 492, 493, 494, 495, 
496, 497, 498, 499, 500, 501, 502, 503, 
504, 505, 506, 507, 508, 509, 510, 511, 
512, 513, 514, 515, 516, 517, 518, 519, 
520, 521, 522, 523, 524, 525, 526, 527, 
** ... 6 like lines cut
*ElSet, ELSET=None-SET-13, INSTANCE=lower_Skin-instance
368, 369, 370, 371, 372, 373, 374, 375, 
376, 377, 378, 379, 380, 381, 382, 383, 
384, 385, 386, 387, 388, 389, 390, 391, 
392, 393, 394, 395, 396, 397, 398, 399, 
400, 401, 402, 403, 404, 405, 406, 407, 
408, 409, 410, 411, 412, 413, 414, 415, 
416, 417, 418, 419, 420, 421, 422, 423, 
424, 425, 426, 427, 428, 429, 430, 431, 
432, 433, 434, 435, 436, 437, 438, 439, 
440, 441, 442, 443, 444, 445, 446, 447, 
448, 449, 450, 451, 452, 453, 454, 455, 
456, 457, 458, 459, 460, 461, 462, 463, 
464, 465, 466, 467, 468, 469, 470, 471, 
472, 473, 474, 475, 476, 477, 478, 479, 
480, 481, 482, 483, 484, 485, 486, 487, 
488, 489, 490, 491, 492, 493, 494, 495, 
496, 497, 498, 499, 500, 501, 502, 503, 
504, 505, 506, 507, 508, 509, 510, 511, 
512, 513, 514, 515, 516, 517, 518, 519, 
520, 521, 522, 523, 524, 525, 526, 527, 
** ... 6 like lines cut
*ElSet, ELSET=None-ELSET-E2-12, INSTANCE=Ribs_centre_section-instance
189
*ElSet, ELSET=None-ELSET-E4-6, INSTANCE=Ribs_centre_section-instance
203, 202, 201, 200, 199, 198, 197, 196, 
195, 194, 193, 192, 191, 190
*ElSet, ELSET=None-ELSET-E4-7, INSTANCE=Ribs_centre_section-instance
186
*ElSet, ELSET=None-ELSET-E2-13, INSTANCE=Ribs_centre_section-instance
231, 230, 229, 228, 227, 226, 225, 224, 
223, 222, 221, 220, 219, 218
*ElSet, ELSET=None-ELSET-E1-6, INSTANCE=Ribs_centre_section-instance
190, 204, 218
*ElSet, ELSET=None-ELSET-E1-7, INSTANCE=Ribs_centre_section-instance
189, 188, 187, 186
*ElSet, ELSET=None-ELSET-E2-14, INSTANCE=Ribs_centre_section-instance
264, 265, 266, 267, 268, 269, 270, 271, 
272, 273, 274, 275, 276, 277
*ElSet, ELSET=None-ELSET-E4-8, INSTANCE=Ribs_centre_section-instance
232
*ElSet, ELSET=None-ELSET-E4-9, INSTANCE=Ribs_centre_section-instance
236, 237, 238, 239, 240, 241, 242, 243, 
244, 245, 246, 247, 248, 249
*ElSet, ELSET=None-ELSET-E2-15, INSTANCE=Ribs_centre_section-instance
235
*ElSet, ELSET=None-ELSET-E1-8, INSTANCE=Ribs_centre_section-instance
235, 234, 233, 232
*ElSet, ELSET=None-ELSET-E1-9, INSTANCE=Ribs_centre_section-instance
236, 250, 264
*ElSet, ELSET=None-ELSET-E2-16, INSTANCE=Ribs_centre_section-instance
310, 311, 312, 313, 314, 315, 316, 317, 
318, 319, 320, 321, 322, 323
*ElSet, ELSET=None-ELSET-E4-10, INSTANCE=Ribs_centre_section-instance
278
*ElSet, ELSET=None-ELSET-E4-11, INSTANCE=Ribs_centre_section-instance
282, 283, 284, 285, 286, 287, 288, 289, 
290, 291, 292, 293, 294, 295
*ElSet, ELSET=None-ELSET-E2-17, INSTANCE=Ribs_centre_section-instance
281
*ElSet, ELSET=None-ELSET-E1-10, INSTANCE=Ribs_centre_section-instance
281, 280, 279, 278
*ElSet, ELSET=None-ELSET-E1-11, INSTANCE=Ribs_centre_section-instance
282, 296, 310
*ElSet, ELSET=None-ELSET-E2-18, INSTANCE=Ribs_centre_section-instance
356, 357, 358, 359, 360, 361, 362, 363, 
364, 365, 366, 367, 368, 369
*ElSet, ELSET=None-ELSET-E4-12, INSTANCE=Ribs_centre_section-instance
324
*ElSet, ELSET=None-ELSET-E4-13, INSTANCE=Ribs_centre_section-instance
328, 329, 330, 331, 332, 333, 334, 335, 
336, 337, 338, 339, 340, 341
*ElSet, ELSET=None-ELSET-E2-19, INSTANCE=Ribs_centre_section-instance
327
*ElSet, ELSET=None-ELSET-E1-12, INSTANCE=Ribs_centre_section-instance
327, 326, 325, 324
*ElSet, ELSET=None-ELSET-E1-13, INSTANCE=Ribs_centre_section-instance
328, 342, 356
*ElSet, ELSET=None-ELSET-E2-20, INSTANCE=Ribs_centre_section-instance
402, 403, 404, 405, 406, 407, 408, 409, 
410, 411, 412, 413, 414, 415
*ElSet, ELSET=None-ELSET-E4-14, INSTANCE=Ribs_centre_section-instance
370
*ElSet, ELSET=None-ELSET-E4-15, INSTANCE=Ribs_centre_section-instance
374, 375, 376, 377, 378, 379, 380, 381, 
382, 383, 384, 385, 386, 387
*ElSet, ELSET=None-ELSET-E2-21, INSTANCE=Ribs_centre_section-instance
373
*ElSet, ELSET=None-ELSET-E1-14, INSTANCE=Ribs_centre_section-instance
373, 372, 371, 370
*ElSet, ELSET=None-ELSET-E1-15, INSTANCE=Ribs_centre_section-instance
374, 388, 402
*NSet, NSET=set, INSTANCE=Upper_Skin-instance
1, 31, 32, 33, 34, 35, 36, 37, 
38, 39, 40, 41, 42, 43, 44, 3
*NSet, NSET=set-1, INSTANCE=Upper_Skin_centre_section-instance
2, 43, 44, 45, 46, 47, 48, 49, 
50, 51, 52, 53, 54, 55, 56, 4
*NSet, NSET=set-2, INSTANCE=Lower_Skin_centre_section-instance
2, 43, 44, 45, 46, 47, 48, 49, 
50, 51, 52, 53, 54, 55, 56, 4
*NSet, NSET=set-3, INSTANCE=Front_spar_centre_section-instance
2, 32, 33, 34, 4
*NSet, NSET=set-4, INSTANCE=Rear_spar_centre_section-instance
2, 31, 32, 4
*NSet, NSET=loadpoints, INSTANCE=Upper_Skin-instance
31, 1, 32, 33, 34, 35, 36, 37, 
38, 39, 40, 41, 42, 43, 44, 3, 
13, 383, 363, 388, 387, 386, 385, 384, 
382, 381, 380, 45
*NSet, NSET=loadpoints-1, INSTANCE=Upper_Skin-instance
14, 392, 389, 391, 364, 46, 390, 393, 
394, 395, 396, 397
*NSet, NSET=loadpoints-2, INSTANCE=Upper_Skin-instance
15, 365, 398, 399, 401, 406, 47, 400, 
402, 403, 404, 405
*NSet, NSET=loadpoints-3, INSTANCE=Upper_Skin-instance
16, 366, 48, 407, 409, 410, 411, 412, 
413, 414, 415, 408
*NSet, NSET=loadpoints-4, INSTANCE=Upper_Skin-instance
17, 420, 421, 422, 424, 367, 49, 416, 
417, 418, 419, 423
*NSet, NSET=loadpoints-5, INSTANCE=Upper_Skin-instance
18, 368, 425, 426, 427, 429, 431, 432, 
433, 50, 428, 430
*NSet, NSET=loadpoints-6, INSTANCE=Upper_Skin-instance
19, 369, 434, 436, 437, 438, 440, 442, 
51, 435, 439, 441
*NSet, NSET=loadpoints-7, INSTANCE=Upper_Skin-instance
20, 370, 443, 444, 445, 448, 449, 450, 
451, 52, 446, 447
*NSet, NSET=loadpoints-8, INSTANCE=Upper_Skin-instance
21, 371, 454, 455, 456, 457, 458, 459, 
460, 53, 452, 453
*NSet, NSET=loadpoints-9, INSTANCE=Upper_Skin-instance
22, 463, 372, 462, 465, 466, 467, 468, 
469, 54, 461, 464
*NSet, NSET=loadpoints-10, INSTANCE=Upper_Skin-instance
23, 470, 472, 477, 478, 373, 55, 471, 
473, 474, 475, 476, 24
*NSet, NSET=loadpoints-11, INSTANCE=Upper_Skin-instance
487, 374, 481, 482, 484, 485, 486, 479, 
480, 483, 56, 25
*NSet, NSET=loadpoints-12, INSTANCE=Upper_Skin-instance
375, 496, 489, 490, 492, 493, 494, 495, 
57, 488, 491, 26
*NSet, NSET=loadpoints-13, INSTANCE=Upper_Skin-instance
376, 498, 504, 505, 499, 500, 501, 502, 
503, 58, 497, 27
*NSet, NSET=loadpoints-14, INSTANCE=Upper_Skin-instance
507, 509, 377, 508, 510, 511, 512, 513, 
514, 59, 506, 28
*NSet, NSET=loadpoints-15, INSTANCE=Upper_Skin-instance
522, 378, 521, 523, 518, 519, 517, 520, 
60, 516, 515, 29
*NSet, NSET=loadpoints-16, INSTANCE=Upper_Skin-instance
379, 532, 527, 531, 526, 61, 528, 525, 
529, 530, 524, 30
*NSet, NSET=loadpoints-17, INSTANCE=Upper_Skin-instance
62, 2, 63, 64, 65, 66, 67, 68, 
69, 70, 71, 4
*NSet, NSET=loadpoints-18, INSTANCE=Upper_Skin-instance
107, 533, 597, 596, 171, 595
*NSet, NSET=loadpoints-19, INSTANCE=Upper_Skin-instance
108, 534, 172, 598, 599, 600, 109
*NSet, NSET=loadpoints-20, INSTANCE=Upper_Skin-instance
603, 535, 173, 601, 602, 110
*NSet, NSET=loadpoints-21, INSTANCE=Upper_Skin-instance
536, 174, 604, 605, 606, 111, 537, 175, 
607, 608, 609
*NSet, NSET=loadpoints-22, INSTANCE=Upper_Skin-instance
112, 538, 176, 610, 611, 612
*NSet, NSET=loadpoints-23, INSTANCE=Upper_Skin-instance
113, 539, 177, 613, 614, 615
*NSet, NSET=loadpoints-24, INSTANCE=Upper_Skin-instance
114, 540, 178, 616, 617, 618
*NSet, NSET=loadpoints-25, INSTANCE=Upper_Skin-instance
115, 541, 179, 620, 621, 619
*NSet, NSET=loadpoints-26, INSTANCE=Upper_Skin-instance
116, 542, 180, 622, 624, 623
*NSet, NSET=loadpoints-27, INSTANCE=Upper_Skin-instance
117, 626, 627, 543, 181, 625
*NSet, NSET=loadpoints-28, INSTANCE=Upper_Skin-instance
118, 544, 182, 629, 630, 628
*NSet, NSET=loadpoints-29, INSTANCE=Upper_Skin-instance
119, 545, 183, 632, 631, 633, 120
*NSet, NSET=loadpoints-30, INSTANCE=Upper_Skin-instance
546, 184, 635, 634, 636, 121
*NSet, NSET=loadpoints-31, INSTANCE=Upper_Skin-instance
547, 185, 637, 638, 639, 122
*NSet, NSET=loadpoints-32, INSTANCE=Upper_Skin-instance
548, 186, 640, 641, 642, 123
*NSet, NSET=loadpoints-33, INSTANCE=Upper_Skin-instance
549, 187, 643, 645, 644, 124
*NSet, NSET=loadpoints-34, INSTANCE=Upper_Skin-instance
646, 550, 188, 647, 648, 125, 650, 649, 
651, 551, 189
*NSet, NSET=loadpoints-35, INSTANCE=Upper_Skin-instance
126, 552, 190, 652, 653, 654
*NSet, NSET=loadpoints-36, INSTANCE=Upper_Skin-instance
127, 553, 191, 655, 657, 656
*NSet, NSET=loadpoints-37, INSTANCE=Upper_Skin-instance
128, 658, 659, 660, 554, 192
*NSet, NSET=loadpoints-38, INSTANCE=Upper_Skin-instance
129, 555, 193, 661, 662, 663, 130
*NSet, NSET=loadpoints-39, INSTANCE=Upper_Skin-instance
556, 194, 665, 666, 664, 131
*NSet, NSET=loadpoints-40, INSTANCE=Upper_Skin-instance
557, 195, 668, 669, 667, 132
*NSet, NSET=loadpoints-41, INSTANCE=Upper_Skin-instance
671, 672, 558, 196, 670, 133
*NSet, NSET=loadpoints-42, INSTANCE=Upper_Skin-instance
673, 675, 559, 197, 674, 134
*NSet, NSET=loadpoints-43, INSTANCE=Upper_Skin-instance
560, 198, 676, 677, 678, 135
*NSet, NSET=loadpoints-44, INSTANCE=Upper_Skin-instance
561, 199, 680, 681, 679, 136
*NSet, NSET=loadpoints-45, INSTANCE=Upper_Skin-instance
562, 200, 683, 682, 684, 137
*NSet, NSET=loadpoints-46, INSTANCE=Upper_Skin-instance
563, 686, 201, 685, 687, 138
*NSet, NSET=loadpoints-47, INSTANCE=Upper_Skin-instance
139, 690, 564, 202, 688, 689, 140
*NSet, NSET=loadpoints-48, INSTANCE=Upper_Skin-instance
203, 692, 565, 693, 691, 141, 566, 204, 
694, 695, 696
*NSet, NSET=loadpoints-49, INSTANCE=Upper_Skin-instance
142, 205, 698, 567, 699, 697
*NSet, NSET=loadpoints-50, INSTANCE=Upper_Skin-instance
143, 206, 700, 568, 701, 702
*NSet, NSET=loadpoints-51, INSTANCE=Upper_Skin-instance
144, 207, 705, 569, 703, 704
*NSet, NSET=loadpoints-52, INSTANCE=Upper_Skin-instance
145, 208, 706, 707, 708, 570
*NSet, NSET=loadpoints-53, INSTANCE=Upper_Skin-instance
146, 209, 709, 710, 711, 571
*NSet, NSET=loadpoints-54, INSTANCE=Upper_Skin-instance
147, 210, 713, 712, 572, 714
*NSet, NSET=loadpoints-55, INSTANCE=Upper_Skin-instance
148, 211, 715, 716, 717, 573
*NSet, NSET=loadpoints-56, INSTANCE=Upper_Skin-instance
149, 212, 718, 719, 720, 574
*NSet, NSET=loadpoints-57, INSTANCE=Upper_Skin-instance
150, 213, 721, 722, 723, 575, 151
*NSet, NSET=loadpoints-58, INSTANCE=Upper_Skin-instance
214, 724, 725, 726, 576, 152
*NSet, NSET=loadpoints-59, INSTANCE=Upper_Skin-instance
215, 727, 728, 577, 729, 153
*NSet, NSET=loadpoints-60, INSTANCE=Upper_Skin-instance
216, 731, 730, 732, 578, 154
*NSet, NSET=loadpoints-61, INSTANCE=Upper_Skin-instance
217, 733, 734, 735, 579, 155
*NSet, NSET=loadpoints-62, INSTANCE=Upper_Skin-instance
218, 736, 737, 738, 580, 156, 219, 739, 
740, 741, 581
*NSet, NSET=loadpoints-63, INSTANCE=Upper_Skin-instance
157, 220, 742, 743, 582, 744
*NSet, NSET=loadpoints-64, INSTANCE=Upper_Skin-instance
158, 221, 745, 746, 747, 583
*NSet, NSET=loadpoints-65, INSTANCE=Upper_Skin-instance
159, 222, 748, 749, 750, 584
*NSet, NSET=loadpoints-66, INSTANCE=Upper_Skin-instance
160, 223, 751, 752, 753, 585, 161
*NSet, NSET=loadpoints-67, INSTANCE=Upper_Skin-instance
754, 224, 755, 756, 586, 162
*NSet, NSET=loadpoints-68, INSTANCE=Upper_Skin-instance
225, 757, 758, 587, 759, 163
*NSet, NSET=loadpoints-69, INSTANCE=Upper_Skin-instance
226, 760, 761, 762, 588, 164
*NSet, NSET=loadpoints-70, INSTANCE=Upper_Skin-instance
227, 764, 763, 765, 589, 165
*NSet, NSET=loadpoints-71, INSTANCE=Upper_Skin-instance
228, 766, 767, 768, 590, 166
*NSet, NSET=loadpoints-72, INSTANCE=Upper_Skin-instance
229, 769, 770, 771, 591, 167
*NSet, NSET=loadpoints-73, INSTANCE=Upper_Skin-instance
230, 772, 773, 774, 592, 168
*NSet, NSET=loadpoints-74, INSTANCE=Upper_Skin-instance
231, 775, 776, 777, 593, 169
*NSet, NSET=loadpoints-75, INSTANCE=Upper_Skin-instance
232, 778, 779, 780, 594, 170, 9, 233, 
10, 236, 235, 234
*NSet, NSET=engine_0_mass, INSTANCE=lower_Skin-instance
169, 597, 658, 719, 780, 235, 168, 596, 
657, 718, 779, 234
*Surface, TYPE=ELEMENT, NAME=surface
None-SET, SPOS
*Surface, TYPE=ELEMENT, NAME=surface-1
None-SET-1, SPOS
*Surface, TYPE=ELEMENT, NAME=surface-2
None-SET-2, SPOS
*Surface, TYPE=ELEMENT, NAME=surface-3
None-SET-3, SPOS
*Surface, TYPE=ELEMENT, NAME=surface-4
None-SET-4, SPOS
*Surface, TYPE=ELEMENT, NAME=surface-5
None-SET-5, SPOS
*Surface, TYPE=ELEMENT, NAME=surface-6
None-SET-6, SPOS
*Surface, TYPE=ELEMENT, NAME=surface-7
None-SET-7, SPOS
*Surface, TYPE=ELEMENT, NAME=surface-8
None-ELSET-E4, E4
None-ELSET-E2, E2
*Surface, TYPE=ELEMENT, NAME=surface-9
None-ELSET-E1, E1
*Surface, TYPE=ELEMENT, NAME=surface-10
None-ELSET-E2-1, E2
None-ELSET-E4-1, E4
*Surface, TYPE=ELEMENT, NAME=surface-11
None-ELSET-E3, E3
None-ELSET-E2-2, E2
*Surface, TYPE=ELEMENT, NAME=surface-12
None-ELSET-E2-3, E2
None-ELSET-E4-2, E4
*Surface, TYPE=ELEMENT, NAME=surface-13
None-ELSET-E4-3, E4
None-ELSET-E2-4, E2
*Surface, TYPE=ELEMENT, NAME=surface-14
None-ELSET-E1-1, E1
*Surface, TYPE=ELEMENT, NAME=surface-15
None-ELSET-E2-5, E2
None-ELSET-E4-4, E4
*Surface, TYPE=ELEMENT, NAME=surface-16
None-ELSET-E3-1, E3
None-ELSET-E2-6, E2
*Surface, TYPE=ELEMENT, NAME=surface-17
None-ELSET-E2-7, E2
None-ELSET-E4-5, E4
*Surface, TYPE=ELEMENT, NAME=surface-18
None-ELSET-E1-2, E1
*Surface, TYPE=ELEMENT, NAME=surface-19
None-ELSET-E3-2, E3
*Surface, TYPE=ELEMENT, NAME=surface-20
None-ELSET-E1-3, E1
*Surface, TYPE=ELEMENT, NAME=surface-21
None-ELSET-E3-3, E3
*Surface, TYPE=ELEMENT, NAME=surface-22
None-ELSET-E1-4, E1
*Surface, TYPE=ELEMENT, NAME=surface-23
None-ELSET-E3-4, E3
*Surface, TYPE=ELEMENT, NAME=surface-24
None-ELSET-E1-5, E1
*Surface, TYPE=ELEMENT, NAME=surface-25
None-ELSET-E3-5, E3
*Surface, TYPE=ELEMENT, NAME=surface-26
None-SET-8, SPOS
*Surface, TYPE=ELEMENT, NAME=surface-27
None-SET-9, SPOS
*Surface, TYPE=ELEMENT, NAME=surface-28
None-SET-10, SPOS
*Surface, TYPE=ELEMENT, NAME=surface-29
None-SET-11, SPOS
*Surface, TYPE=ELEMENT, NAME=surface-30
None-ELSET-E2-8, E2
*Surface, TYPE=ELEMENT, NAME=surface-31
None-ELSET-E2-9, E2
*Surface, TYPE=ELEMENT, NAME=surface-32
None-ELSET-E2-10, E2
*Surface, TYPE=ELEMENT, NAME=surface-33
None-ELSET-E2-11, E2
*Surface, TYPE=ELEMENT, NAME=surface-34
None-SET-12, SPOS
*Surface, TYPE=ELEMENT, NAME=surface-35
None-SET-13, SPOS
*Surface, TYPE=ELEMENT, NAME=surface-36
None-ELSET-E2-12, E2
None-ELSET-E4-6, E4
*Surface, TYPE=ELEMENT, NAME=surface-37
None-ELSET-E4-7, E4
None-ELSET-E2-13, E2
*Surface, TYPE=ELEMENT, NAME=surface-38
None-ELSET-E1-6, E1
*Surface, TYPE=ELEMENT, NAME=surface-39
None-ELSET-E1-7, E1
*Surface, TYPE=ELEMENT, NAME=surface-40
None-ELSET-E2-14, E2
None-ELSET-E4-8, E4
*Surface, TYPE=ELEMENT, NAME=surface-41
None-ELSET-E4-9, E4
None-ELSET-E2-15, E2
*Surface, TYPE=ELEMENT, NAME=surface-42
None-ELSET-E1-8, E1
*Surface, TYPE=ELEMENT, NAME=surface-43
None-ELSET-E1-9, E1
*Surface, TYPE=ELEMENT, NAME=surface-44
None-ELSET-E2-16, E2
None-ELSET-E4-10, E4
*Surface, TYPE=ELEMENT, NAME=surface-45
None-ELSET-E4-11, E4
None-ELSET-E2-17, E2
*Surface, TYPE=ELEMENT, NAME=surface-46
None-ELSET-E1-10, E1
*Surface, TYPE=ELEMENT, NAME=surface-47
None-ELSET-E1-11, E1
*Surface, TYPE=ELEMENT, NAME=surface-48
None-ELSET-E2-18, E2
None-ELSET-E4-12, E4
*Surface, TYPE=ELEMENT, NAME=surface-49
None-ELSET-E4-13, E4
None-ELSET-E2-19, E2
*Surface, TYPE=ELEMENT, NAME=surface-50
None-ELSET-E1-12, E1
*Surface, TYPE=ELEMENT, NAME=surface-51
None-ELSET-E1-13, E1
*Surface, TYPE=ELEMENT, NAME=surface-52
None-ELSET-E2-20, E2
None-ELSET-E4-14, E4
*Surface, TYPE=ELEMENT, NAME=surface-53
None-ELSET-E4-15, E4
None-ELSET-E2-21, E2
*Surface, TYPE=ELEMENT, NAME=surface-54
None-ELSET-E1-14, E1
*Surface, TYPE=ELEMENT, NAME=surface-55
None-ELSET-E1-15, E1
*Tie, NAME=tie, TYPE=Surface to Surface
surface-8, surface
*Tie, NAME=tie-1, TYPE=Surface to Surface
surface-11, surface-2
*Tie, NAME=tie-2, TYPE=Surface to Surface
surface-13, surface-1
*Tie, NAME=tie-3, TYPE=Surface to Surface
surface-16, surface-3
*Tie, NAME=tie-4, TYPE=Surface to Surface
surface-10, surface-4
*Tie, NAME=tie-5, TYPE=Surface to Surface
surface-12, surface-6
*Tie, NAME=tie-6, TYPE=Surface to Surface
surface-15, surface-5
*Tie, NAME=tie-7, TYPE=Surface to Surface
surface-17, surface-7
*Tie, NAME=tie-8, TYPE=Surface to Surface
surface-18, surface-22
*Tie, NAME=tie-9, TYPE=Surface to Surface
surface-19, surface-24
*Tie, NAME=tie-10, TYPE=Surface to Surface
surface-20, surface-23
*Tie, NAME=tie-11, TYPE=Surface to Surface
surface-21, surface-25
*Tie, NAME=tie-12, TYPE=Surface to Surface
surface-30, surface-34
*Tie, NAME=tie-13, TYPE=Surface to Surface
surface-31, surface-35
*End Assembly
** 
** MATERIALS
** 
*Material, NAME=user-chosen_material
*Density
2810
*Elastic
72000000000.0, 0.33
** 
** STEPS
** 
** Name: boundary-condition Type: Displacement/Rotation
*Boundary
set, 1, 1
set, 2, 2
set, 3, 3
set, 4, 4
set, 5, 5
set, 6, 6
** Name: boundary-condition-1 Type: Displacement/Rotation
*Boundary
set-1, 1, 1
set-1, 2, 2
set-1, 3, 3
set-1, 4, 4
set-1, 5, 5
set-1, 6, 6
** Name: boundary-condition-2 Type: Displacement/Rotation
*Boundary
set-2, 1, 1
set-2, 2, 2
set-2, 3, 3
set-2, 4, 4
set-2, 5, 5
set-2, 6, 6
** Name: boundary-condition-3 Type: Displacement/Rotation
*Boundary
set-3, 1, 1
set-3, 2, 2
set-3, 3, 3
set-3, 4, 4
set-3, 5, 5
set-3, 6, 6
** Name: boundary-condition-4 Type: Displacement/Rotation
*Boundary
set-4, 1, 1
set-4, 2, 2
set-4, 3, 3
set-4, 4, 4
set-4, 5, 5
set-4, 6, 6
** 
** STEP: analysis1
** 
*Step, NAME=analysis1, NLGEOM=NO
*Static
0.01, 1.0, 1e-15, 0.1
*CLoad
loadpoints, 3, 3185.0649350649346
*CLoad
loadpoints-1, 3, 3143.1561859193434
*CLoad
loadpoints-2, 3, 3101.2474367737523
*CLoad
loadpoints-3, 3, 3059.3386876281606
*CLoad
loadpoints-4, 3, 3017.4299384825695
*CLoad
loadpoints-5, 3, 2975.5211893369783
*CLoad
loadpoints-6, 3, 2933.612440191387
*CLoad
loadpoints-7, 3, 2891.703691045796
*CLoad
loadpoints-8, 3, 2849.794941900205
*CLoad
loadpoints-9, 3, 2807.886192754613
*CLoad
loadpoints-10, 3, 2765.9774436090224
*CLoad
loadpoints-11, 3, 2724.068694463431
*CLoad
loadpoints-12, 3, 2682.1599453178396
*CLoad
loadpoints-13, 3, 2640.2511961722485
*CLoad
loadpoints-14, 3, 2598.3424470266573
*CLoad
loadpoints-15, 3, 2556.4336978810657
*CLoad
loadpoints-16, 3, 2514.524948735475
*CLoad
loadpoints-17, 3, 2472.6161995898833
*CLoad
loadpoints-18, 3, 2430.707450444292
*CLoad
loadpoints-19, 3, 2388.798701298701
*CLoad
loadpoints-20, 3, 2346.88995215311
*CLoad
loadpoints-21, 3, 2304.981203007518
*CLoad
loadpoints-22, 3, 2263.072453861927
*CLoad
loadpoints-23, 3, 2221.1637047163363
*CLoad
loadpoints-24, 3, 2179.2549555707446
*CLoad
loadpoints-25, 3, 2137.3462064251535
*CLoad
loadpoints-26, 3, 2095.437457279562
*CLoad
loadpoints-27, 3, 2053.528708133971
*CLoad
loadpoints-28, 3, 2011.6199589883797
*CLoad
loadpoints-29, 3, 1969.7112098427885
*CLoad
loadpoints-30, 3, 1927.8024606971971
*CLoad
loadpoints-31, 3, 1885.893711551606
*CLoad
loadpoints-32, 3, 1843.9849624060148
*CLoad
loadpoints-33, 3, 1802.0762132604234
*CLoad
loadpoints-34, 3, 1760.167464114832
*CLoad
loadpoints-35, 3, 1718.258714969241
*CLoad
loadpoints-36, 3, 1676.3499658236497
*CLoad
loadpoints-37, 3, 1634.4412166780583
*CLoad
loadpoints-38, 3, 1592.5324675324673
*CLoad
loadpoints-39, 3, 1550.623718386876
*CLoad
loadpoints-40, 3, 1508.714969241285
*CLoad
loadpoints-41, 3, 1466.8062200956936
*CLoad
loadpoints-42, 3, 1424.8974709501022
*CLoad
loadpoints-43, 3, 1382.9887218045112
*CLoad
loadpoints-44, 3, 1341.0799726589198
*CLoad
loadpoints-45, 3, 1299.1712235133284
*CLoad
loadpoints-46, 3, 1257.2624743677375
*CLoad
loadpoints-47, 3, 1215.353725222146
*CLoad
loadpoints-48, 3, 1173.4449760765547
*CLoad
loadpoints-49, 3, 1131.5362269309633
*CLoad
loadpoints-50, 3, 1089.6274777853723
*CLoad
loadpoints-51, 3, 1047.718728639781
*CLoad
loadpoints-52, 3, 1005.8099794941895
*CLoad
loadpoints-53, 3, 963.9012303485985
*CLoad
loadpoints-54, 3, 921.9924812030074
*CLoad
loadpoints-55, 3, 880.083732057416
*CLoad
loadpoints-56, 3, 838.174982911825
*CLoad
loadpoints-57, 3, 796.2662337662337
*CLoad
loadpoints-58, 3, 754.3574846206423
*CLoad
loadpoints-59, 3, 712.4487354750513
*CLoad
loadpoints-60, 3, 670.5399863294599
*CLoad
loadpoints-61, 3, 628.6312371838685
*CLoad
loadpoints-62, 3, 586.7224880382774
*CLoad
loadpoints-63, 3, 544.8137388926862
*CLoad
loadpoints-64, 3, 502.90498974709476
*CLoad
loadpoints-65, 3, 460.9962406015037
*CLoad
loadpoints-66, 3, 419.08749145591236
*CLoad
loadpoints-67, 3, 377.17874231032096
*CLoad
loadpoints-68, 3, 335.2699931647296
*CLoad
loadpoints-69, 3, 293.36124401913855
*CLoad
loadpoints-70, 3, 251.45249487354718
*CLoad
loadpoints-71, 3, 209.5437457279558
*CLoad
loadpoints-72, 3, 167.6349965823648
*CLoad
loadpoints-73, 3, 125.72624743677342
*CLoad
loadpoints-74, 3, 83.81749829118205
*CLoad
loadpoints-75, 3, 41.90874914559137
*CLoad
engine_0_mass, 3, -9810.0
*Output, NAME=field-output, FIELD, VARIABLE=PRESELECT
*Output, NAME=history-output, HISTORY, VARIABLE=PRESELECT
*End Step
