*Heading
** Job name: ParaPy Project Model name: ParaPy Model
** Generated by: ParaPy abaqus 0.1.15
*PrePrint, ECHO=NO, MODEL=NO, HISTORY=NO, CONTACT=NO
** 
** PARTS
** 
*Part, NAME=Upper_Skin
*Node
63, -1.66370911638478, 7.703846153846154, 0.2337460182128645
59, -2.450899581674623, 5.8730769230769235, 0.2578896009945202
23, -3.7366666666666672, 0.0, 0.38743333333333335
19, -3.544904701449404, 3.15, 0.3217001016565334
88, -0.0538880543127096, 7.703846153846154, 0.16677746203066643
92, 0.5670242926461713, 9.534615384615384, 0.14955104897157875
117, 1.3431647263447732, 11.823076923076922, 0.10801803264771917
26, -2.2616666666666667, 0.0, 0.3260733333333333
54, -3.544904701449404, 3.15, 0.3017001016565333
154, -2.254101965352162, 6.33076923076923, 0.2318537052991063
58, -2.6476971979970845, 5.415384615384615, 0.26392549668993415
171, -2.4371219822464654, 3.1499999999999995, 0.27561634053769113
139, 0.6978622794847499, 13.196153846153845, 0.14131526986789744
37, -2.090888546066379, 4.5, 0.2364604864824159
11, 2.895445593741976, 16.4, 0.064952
115, 1.6536208998242137, 12.738461538461538, 0.09940482611817533
48, -4.552129243064201, 0.4500000000000004, 0.39310572880807615
156, -2.647697197997084, 5.415384615384614, 0.24392549668993413
189, 1.7813941876176123, 14.569230769230764, 0.12269299792037172
134, 1.6818503610970539, 15.484615384615383, 0.11113579139082783
** ... 189 like lines cut
*Element, TYPE=S3R
225, 2, 36, 57
227, 37, 38, 185
163, 1, 22, 13
167, 25, 26, 158
*Element, TYPE=S4R
226, 36, 37, 185, 57
228, 38, 4, 82, 185
229, 10, 107, 186, 106
230, 106, 186, 187, 105
231, 105, 187, 188, 104
232, 104, 188, 189, 103
233, 103, 189, 190, 102
234, 102, 190, 191, 101
235, 101, 191, 192, 100
236, 100, 192, 193, 99
237, 99, 193, 194, 98
238, 98, 194, 195, 97
239, 97, 195, 196, 96
240, 96, 196, 197, 95
241, 95, 197, 198, 94
242, 94, 198, 199, 93
243, 93, 199, 200, 92
244, 92, 200, 201, 91
245, 91, 201, 202, 90
246, 90, 202, 203, 89
** ... 144 like lines cut
*ElSet, ELSET=Upper_Skin
225, 226, 227, 228, 229, 230, 231, 232, 
233, 234, 235, 236, 237, 238, 239, 240, 
241, 242, 243, 244, 245, 246, 247, 248, 
249, 250, 251, 252, 253, 254, 255, 256, 
257, 258, 259, 260, 261, 262, 263, 264, 
265, 266, 267, 268, 269, 270, 271, 272, 
273, 274, 275, 276, 277, 278, 205, 206, 
207, 208, 209, 210, 211, 212, 213, 214, 
163, 164, 165, 166, 167, 168, 169, 170, 
171, 172, 173, 174, 175, 176, 177, 178, 
179, 180, 181, 182, 183, 184, 185, 186, 
187, 188, 189, 190, 191, 192, 193, 194, 
195, 196, 197, 198, 199, 200, 201, 202, 
203, 204, 279, 280, 281, 282, 283, 284, 
285, 286, 287, 288, 289, 290, 291, 292, 
293, 294, 295, 296, 297, 298, 299, 300, 
301, 302, 303, 304, 215, 216, 217, 218, 
219, 220, 221, 222, 223, 224, 305, 306, 
307, 308, 309, 310, 311, 312, 313, 314, 
315, 316, 317, 318, 319, 320, 321, 322, 
323, 324, 325, 326, 327, 328, 329, 330
*Shell Section, ELSET=Upper_Skin, MATERIAL=test_material-2
0.003
*End Part
*Part, NAME=lower_Skin
*Node
90, 1.6536208998242137, 12.738461538461538, -0.04932940692913035
92, 1.3431647263447732, 11.823076923076922, -0.05288775866141293
27, -1.7070484661490752, 0.4499999999999999, -0.12176945725196738
99, 0.2565681191667317, 8.619230769230771, -0.06534198972440197
14, -4.3842584861284015, 0.8999999999999998, -0.2318176674540392
10, 2.895445593741976, 16.4, -0.035095999999999995
63, 0.6978622794847498, 13.196153846153845, -0.09398947541889893
131, -0.8300284880113121, 5.415384615384612, -0.057796220787391064
9, 2.075445593741976, 16.4, -0.06937199999999999
52, -3.8806462153210033, 2.2499999999999996, -0.18518916863509804
103, -0.36434422779214914, 6.788461538461542, -0.07245869318896715
195, 0.7253170784310703, 11.823076923076922, -0.0787137903442057
153, -2.0573043490297023, 6.788461538461535, -0.12322442625669681
209, -1.738862843004196, 5.41538461538462, -0.11578549682609365
175, -2.898766563819914, 1.35, -0.16786493646848044
190, 1.6053813360865232, 14.11153846153846, -0.06547389517210284
115, 1.6536208998242137, 12.738461538461538, -0.029329406929130344
65, 0.3042670468398285, 12.28076923076923, -0.10102303982429861
113, 1.9640770733036543, 13.653846153846153, -0.025771055196847754
182, -3.4159361953416765, 1.8, -0.18762345843302616
** ... 189 like lines cut
*Element, TYPE=S4R
205, 3, 5, 39, 27
206, 27, 39, 40, 28
207, 28, 40, 41, 29
208, 29, 41, 42, 30
209, 30, 42, 43, 31
210, 31, 43, 44, 32
211, 32, 44, 45, 33
212, 33, 45, 46, 34
213, 34, 46, 47, 35
214, 35, 47, 6, 4
215, 1, 7, 48, 13
216, 13, 48, 49, 14
217, 14, 49, 50, 15
218, 15, 50, 51, 16
219, 16, 51, 52, 17
220, 17, 52, 53, 18
221, 18, 53, 54, 19
222, 19, 54, 55, 20
223, 20, 55, 56, 21
224, 21, 56, 8, 2
** ... 144 like lines cut
*Element, TYPE=S3R
163, 1, 22, 13
167, 25, 26, 158
226, 38, 37, 185
228, 36, 2, 81
*ElSet, ELSET=lower_Skin
205, 206, 207, 208, 209, 210, 211, 212, 
213, 214, 215, 216, 217, 218, 219, 220, 
221, 222, 223, 224, 163, 164, 165, 166, 
167, 168, 169, 170, 171, 172, 173, 174, 
175, 176, 177, 178, 179, 180, 181, 182, 
183, 184, 185, 186, 187, 188, 189, 190, 
191, 192, 193, 194, 195, 196, 197, 198, 
199, 200, 201, 202, 203, 204, 225, 226, 
227, 228, 229, 230, 231, 232, 233, 234, 
235, 236, 237, 238, 239, 240, 241, 242, 
243, 244, 245, 246, 247, 248, 249, 250, 
251, 252, 253, 254, 255, 256, 257, 258, 
259, 260, 261, 262, 263, 264, 265, 266, 
267, 268, 269, 270, 271, 272, 273, 274, 
275, 276, 277, 278, 279, 280, 281, 282, 
283, 284, 285, 286, 287, 288, 289, 290, 
291, 292, 293, 294, 295, 296, 297, 298, 
299, 300, 301, 302, 303, 304, 305, 306, 
307, 308, 309, 310, 311, 312, 313, 314, 
315, 316, 317, 318, 319, 320, 321, 322, 
323, 324, 325, 326, 327, 328, 329, 330
*Shell Section, ELSET=lower_Skin, MATERIAL=test_material-2
0.003
*End Part
*Part, NAME=front_spar
*Node
32, -1.66370911638478, 7.703846153846154, 0.2337460182128645
59, -1.270113883739858, 8.619230769230768, -0.12915729744589743
28, -2.450899581674623, 5.8730769230769235, 0.2578896009945202
67, 0.3042670468398272, 12.280769230769227, -0.10102303982429867
13, -3.544904701449404, 3.15, 0.3217001016565334
51, -2.8444948143195448, 4.957692307692307, -0.1572915550674962
18, -4.3842584861284015, 0.8999999999999998, -0.23181766745403923
11, -3.8806462153210033, 2.25, 0.35216864404038095
21, -3.8806462153210033, 2.25, -0.20518916863509803
54, -2.254101965352162, 6.3307692307692305, -0.14674120845939667
69, 0.6978622794847487, 13.196153846153843, -0.09398947541889896
9, -4.216387729192602, 1.35, 0.3826371864242286
45, 0.8946598958072095, 13.65384615384615, 0.15527937417248355
33, -1.466911500062319, 8.161538461538461, 0.2277101225174506
43, 0.501064663162288, 12.738461538461534, 0.1673511655633114
31, -1.8605067327072402, 7.246153846153847, 0.2397819139082784
27, -2.6476971979970845, 5.415384615384615, 0.26392549668993415
15, -3.209163187577805, 4.05, 0.2912315592726858
53, -2.450899581674623, 5.8730769230769235, -0.1502579906620965
48, 1.4850527447745916, 15.026923076923072, 0.1371716870862418
** ... 55 like lines cut
*Element, TYPE=S4R
88, 5, 50, 75, 6
89, 50, 49, 74, 75
90, 49, 48, 73, 74
91, 48, 47, 72, 73
92, 47, 46, 71, 72
93, 46, 45, 70, 71
94, 45, 44, 69, 70
95, 44, 43, 68, 69
96, 43, 42, 67, 68
97, 42, 41, 66, 67
98, 41, 40, 65, 66
99, 40, 39, 64, 65
100, 39, 38, 63, 64
101, 38, 37, 62, 63
102, 37, 36, 61, 62
103, 36, 35, 60, 61
104, 35, 34, 59, 60
105, 34, 33, 58, 59
106, 33, 32, 57, 58
107, 32, 31, 56, 57
** ... 16 like lines cut
*Element, TYPE=S3R
77, 1, 16, 7
*ElSet, ELSET=front_spar
88, 89, 90, 91, 92, 93, 94, 95, 
96, 97, 98, 99, 100, 101, 102, 103, 
104, 105, 106, 107, 108, 109, 110, 111, 
112, 113, 77, 78, 79, 80, 81, 82, 
83, 84, 85, 86, 87
*Shell Section, ELSET=front_spar, MATERIAL=test_material-2
0.01
*End Part
*Part, NAME=rear_spar
*Node
67, 1.6536208998242126, 12.738461538461534, -0.04932940692913035
31, -0.0538880543127096, 7.703846153846154, 0.16677746203066643
35, 0.5670242926461713, 9.534615384615384, 0.14955104897157875
42, 1.6536208998242126, 12.738461538461534, 0.11940482611817535
20, -1.4552423307453761, 2.25, -0.10380728625983683
40, 1.3431647263447721, 11.82307692307692, 0.1280180326477192
43, 1.808848986563933, 13.196153846153843, 0.11509822285340345
61, 0.7222523793858914, 9.99230769230769, -0.0600044621259781
7, -1.7070484661490752, 0.4499999999999999, 0.294750368488407
19, -1.518193864596301, 1.7999999999999996, -0.10829782900786947
57, 0.10134003242701062, 8.161538461538461, -0.06712116559054328
72, 2.4297613335228134, 15.026923076923072, -0.04043352759842389
73, 2.584989420262534, 15.48461538461538, -0.03865435173228259
65, 1.3431647263447721, 11.82307692307692, -0.05288775866141293
39, 1.187936639605052, 11.365384615384613, 0.1323246359124911
10, -1.518193864596301, 1.8, 0.26214147395362797
4, -1.140484661490752, 4.5, -0.08135457251967362
60, 0.5670242926461707, 9.534615384615382, -0.0617836379921194
71, 2.2745332467830934, 14.569230769230764, -0.04221270346456518
23, -1.2663877291926018, 3.5999999999999996, -0.09033565801573892
** ... 54 like lines cut
*Element, TYPE=S4R
86, 5, 49, 74, 6
87, 49, 48, 73, 74
88, 48, 47, 72, 73
89, 47, 46, 71, 72
90, 46, 45, 70, 71
91, 45, 44, 69, 70
92, 44, 43, 68, 69
93, 43, 42, 67, 68
94, 42, 41, 66, 67
95, 41, 40, 65, 66
96, 40, 39, 64, 65
97, 39, 38, 63, 64
98, 38, 37, 62, 63
99, 37, 36, 61, 62
100, 36, 35, 60, 61
101, 35, 34, 59, 60
102, 34, 33, 58, 59
103, 33, 32, 57, 58
104, 32, 31, 56, 57
105, 31, 30, 55, 56
** ... 16 like lines cut
*ElSet, ELSET=rear_spar
86, 87, 88, 89, 90, 91, 92, 93, 
94, 95, 96, 97, 98, 99, 100, 101, 
102, 103, 104, 105, 106, 107, 108, 109, 
110, 111, 76, 77, 78, 79, 80, 81, 
82, 83, 84, 85
*Shell Section, ELSET=rear_spar, MATERIAL=test_material-2
0.01
*End Part
** 
** ASSEMBLY
** 
*Assembly, NAME=Assembly
*Instance, NAME=Upper_Skin-instance, PART=Upper_Skin
*End Instance
*Instance, NAME=lower_Skin-instance, PART=lower_Skin
*End Instance
*Instance, NAME=front_spar-instance, PART=front_spar
*End Instance
*Instance, NAME=rear_spar-instance, PART=rear_spar
*End Instance
*ElSet, ELSET=None-SET, INSTANCE=Upper_Skin-instance
205, 206, 207, 208, 209, 210, 211, 212, 
213, 214
*ElSet, ELSET=None-SET-1, INSTANCE=Upper_Skin-instance
215, 216, 217, 218, 219, 220, 221, 222, 
223, 224
*ElSet, ELSET=None-SET-2, INSTANCE=Upper_Skin-instance
279, 280, 281, 282, 283, 284, 285, 286, 
287, 288, 289, 290, 291, 292, 293, 294, 
295, 296, 297, 298, 299, 300, 301, 302, 
303, 304
*ElSet, ELSET=None-SET-3, INSTANCE=Upper_Skin-instance
305, 306, 307, 308, 309, 310, 311, 312, 
313, 314, 315, 316, 317, 318, 319, 320, 
321, 322, 323, 324, 325, 326, 327, 328, 
329, 330
*ElSet, ELSET=None-SET-4, INSTANCE=lower_Skin-instance
205, 206, 207, 208, 209, 210, 211, 212, 
213, 214
*ElSet, ELSET=None-SET-5, INSTANCE=lower_Skin-instance
215, 216, 217, 218, 219, 220, 221, 222, 
223, 224
*ElSet, ELSET=None-SET-6, INSTANCE=lower_Skin-instance
279, 280, 281, 282, 283, 284, 285, 286, 
287, 288, 289, 290, 291, 292, 293, 294, 
295, 296, 297, 298, 299, 300, 301, 302, 
303, 304
*ElSet, ELSET=None-SET-7, INSTANCE=lower_Skin-instance
305, 306, 307, 308, 309, 310, 311, 312, 
313, 314, 315, 316, 317, 318, 319, 320, 
321, 322, 323, 324, 325, 326, 327, 328, 
329, 330
*ElSet, ELSET=None-ELSET-E1, INSTANCE=rear_spar-instance
85, 84, 83, 82, 81, 80, 79, 78, 
77, 76
*ElSet, ELSET=None-ELSET-E3, INSTANCE=rear_spar-instance
85, 84, 83, 82, 81, 80, 79, 78, 
77, 76
*ElSet, ELSET=None-ELSET-E1-1, INSTANCE=rear_spar-instance
111, 110, 109, 108, 107, 106, 105, 104, 
103, 102, 101, 100, 99, 98, 97, 96, 
95, 94, 93, 92, 91, 90, 89, 88, 
87, 86
*ElSet, ELSET=None-ELSET-E3-1, INSTANCE=rear_spar-instance
111, 110, 109, 108, 107, 106, 105, 104, 
103, 102, 101, 100, 99, 98, 97, 96, 
95, 94, 93, 92, 91, 90, 89, 88, 
87, 86
*ElSet, ELSET=None-ELSET-E3-2, INSTANCE=front_spar-instance
77
*ElSet, ELSET=None-ELSET-E2, INSTANCE=front_spar-instance
87, 86, 85, 84, 83, 82, 81, 80, 
79
*ElSet, ELSET=None-ELSET-E2-1, INSTANCE=front_spar-instance
78
*ElSet, ELSET=None-ELSET-E4, INSTANCE=front_spar-instance
87, 86, 85, 84, 83, 82, 81, 80, 
79
*ElSet, ELSET=None-ELSET-E1-2, INSTANCE=front_spar-instance
113, 112, 111, 110, 109, 108, 107, 106, 
105, 104, 103, 102, 101, 100, 99, 98, 
97, 96, 95, 94, 93, 92, 91, 90, 
89, 88
*ElSet, ELSET=None-ELSET-E3-3, INSTANCE=front_spar-instance
113, 112, 111, 110, 109, 108, 107, 106, 
105, 104, 103, 102, 101, 100, 99, 98, 
97, 96, 95, 94, 93, 92, 91, 90, 
89, 88
*NSet, NSET=set, INSTANCE=Upper_Skin-instance
1, 22, 23, 24, 25, 26, 3
*NSet, NSET=set-1, INSTANCE=lower_Skin-instance
1, 22, 23, 24, 25, 26, 3
*NSet, NSET=set-2, INSTANCE=front_spar-instance
1, 16, 3
*NSet, NSET=set-3, INSTANCE=rear_spar-instance
1, 3
*Surface, TYPE=ELEMENT, NAME=surface
None-SET, SPOS
*Surface, TYPE=ELEMENT, NAME=surface-1
None-SET-1, SPOS
*Surface, TYPE=ELEMENT, NAME=surface-2
None-SET-2, SPOS
*Surface, TYPE=ELEMENT, NAME=surface-3
None-SET-3, SPOS
*Surface, TYPE=ELEMENT, NAME=surface-4
None-SET-4, SPOS
*Surface, TYPE=ELEMENT, NAME=surface-5
None-SET-5, SPOS
*Surface, TYPE=ELEMENT, NAME=surface-6
None-SET-6, SPOS
*Surface, TYPE=ELEMENT, NAME=surface-7
None-SET-7, SPOS
*Surface, TYPE=ELEMENT, NAME=surface-8
None-ELSET-E1, E1
*Surface, TYPE=ELEMENT, NAME=surface-9
None-ELSET-E3, E3
*Surface, TYPE=ELEMENT, NAME=surface-10
None-ELSET-E1-1, E1
*Surface, TYPE=ELEMENT, NAME=surface-11
None-ELSET-E3-1, E3
*Surface, TYPE=ELEMENT, NAME=surface-12
None-ELSET-E3-2, E3
None-ELSET-E2, E2
*Surface, TYPE=ELEMENT, NAME=surface-13
None-ELSET-E2-1, E2
None-ELSET-E4, E4
*Surface, TYPE=ELEMENT, NAME=surface-14
None-ELSET-E1-2, E1
*Surface, TYPE=ELEMENT, NAME=surface-15
None-ELSET-E3-3, E3
*Tie, NAME=tie, TYPE=Surface to Surface
surface-8, surface
*Tie, NAME=tie-1, TYPE=Surface to Surface
surface-10, surface-2
*Tie, NAME=tie-2, TYPE=Surface to Surface
surface-12, surface-1
*Tie, NAME=tie-3, TYPE=Surface to Surface
surface-14, surface-3
*Tie, NAME=tie-4, TYPE=Surface to Surface
surface-9, surface-4
*Tie, NAME=tie-5, TYPE=Surface to Surface
surface-11, surface-6
*Tie, NAME=tie-6, TYPE=Surface to Surface
surface-13, surface-5
*Tie, NAME=tie-7, TYPE=Surface to Surface
surface-15, surface-7
*End Assembly
** 
** MATERIALS
** 
*Material, NAME=test_material-2
*Density
2810
*Elastic
72000000000.0, 0.33
** 
** STEPS
** 
** Name: boundary-condition Type: Displacement/Rotation
*Boundary
set, 1, 1
set, 2, 2
set, 3, 3
set, 4, 4
set, 5, 5
set, 6, 6
** Name: boundary-condition-1 Type: Displacement/Rotation
*Boundary
set-1, 1, 1
set-1, 2, 2
set-1, 3, 3
set-1, 4, 4
set-1, 5, 5
set-1, 6, 6
** Name: boundary-condition-2 Type: Displacement/Rotation
*Boundary
set-2, 1, 1
set-2, 2, 2
set-2, 3, 3
set-2, 4, 4
set-2, 5, 5
set-2, 6, 6
** Name: boundary-condition-3 Type: Displacement/Rotation
*Boundary
set-3, 1, 1
set-3, 2, 2
set-3, 3, 3
set-3, 4, 4
set-3, 5, 5
set-3, 6, 6
** 
** STEP: analysis1
** 
*Step, NAME=analysis1, NLGEOM=NO
*Static
0.01, 1.0, 1e-15, 0.1
*Output, NAME=field-output, FIELD, VARIABLE=PRESELECT
*Output, NAME=history-output, HISTORY, VARIABLE=PRESELECT
*End Step
