*Heading
** Job name: ParaPy Project Model name: ParaPy Model
** Generated by: ParaPy abaqus 0.1.15
*PrePrint, ECHO=NO, MODEL=NO, HISTORY=NO, CONTACT=NO
** 
** PARTS
** 
*Part, NAME=Upper_Skin
*Node
55, -1.4707859193505424, 2.1388888888888893, 0.253955702074527
362, -3.3370543034313407, 3.68307692307693, 0.28691603600030985
547, -1.854050005828056, 6.333333333333334, 0.24927402938327745
718, 0.9410355308636479, 11.433333333333326, 0.14079392735792076
590, 1.3953058583562425, 14.45555555555555, 0.12651581139409146
351, -2.486927512350068, 5.696923076923081, 0.2546289673127566
730, 1.1932455127157113, 12.188888888888885, 0.13145687452784058
157, 0.5271583833017142, 12.836923076923064, 0.16015663287506798
426, -2.0936990831747644, 1.1666666666666665, 0.29769479522163994
458, -3.142812624359593, 1.75, 0.3306423752157136
28, -3.6204956270871613, 2.9473684210526327, 0.32855997815815985
72, -1.7427987199409585, 0.19444444444444453, 0.2809232456431388
345, -2.0232219899421002, 6.795384615384619, 0.23701783893772757
43, -2.163333333333334, 0.0, 0.32198266666666664
339, -1.5595164675341335, 7.893846153846156, 0.21940671056269853
134, -1.2503794525954894, 8.626153846153846, 0.22766595831267922
469, -3.5406970167862903, 1.9444444444444446, 0.3436291848342592
140, -0.7866739301875225, 9.724615384615383, 0.21005482993765018
749, 1.3616761122223222, 13.322222222222214, 0.12618248521081404
550, -1.6273507594896164, 6.8999999999999995, 0.2407095025468226
** ... 760 like lines cut
*Element, TYPE=S4R
589, 1, 7, 89, 13
590, 13, 89, 90, 14
591, 14, 90, 91, 15
592, 15, 91, 92, 16
593, 16, 92, 93, 17
594, 17, 93, 94, 18
595, 18, 94, 95, 19
596, 19, 95, 96, 20
597, 20, 96, 97, 21
598, 21, 97, 98, 22
599, 22, 98, 99, 23
600, 23, 99, 100, 24
601, 24, 100, 101, 25
602, 25, 101, 102, 26
603, 26, 102, 103, 27
604, 27, 103, 104, 28
605, 28, 104, 105, 29
606, 29, 105, 106, 30
607, 30, 106, 8, 2
368, 2, 30, 379, 62
** ... 657 like lines cut
*Element, TYPE=S3R
386, 13, 1, 31
387, 31, 32, 363
390, 34, 35, 387
394, 38, 39, 384
398, 42, 43, 381
642, 137, 136, 561
671, 109, 533, 534
672, 108, 107, 62
673, 107, 2, 62
674, 62, 63, 533
675, 63, 64, 533
677, 65, 66, 597
679, 67, 68, 596
680, 68, 69, 596
682, 70, 71, 595
*ElSet, ELSET=Upper_Skin
589, 590, 591, 592, 593, 594, 595, 596, 
597, 598, 599, 600, 601, 602, 603, 604, 
605, 606, 607, 368, 369, 370, 371, 372, 
373, 374, 375, 376, 377, 378, 379, 380, 
381, 382, 383, 384, 385, 386, 387, 388, 
389, 390, 391, 392, 393, 394, 395, 396, 
397, 398, 399, 400, 401, 402, 403, 404, 
405, 406, 407, 408, 409, 410, 411, 412, 
413, 414, 415, 416, 417, 418, 419, 420, 
421, 422, 423, 424, 425, 426, 427, 428, 
429, 430, 431, 432, 433, 434, 435, 436, 
437, 438, 439, 440, 441, 442, 443, 444, 
445, 446, 447, 448, 449, 450, 451, 452, 
453, 454, 455, 456, 457, 458, 459, 460, 
461, 462, 463, 464, 465, 466, 467, 468, 
469, 470, 471, 472, 473, 474, 475, 476, 
477, 478, 479, 480, 481, 482, 483, 484, 
485, 486, 487, 488, 489, 490, 491, 492, 
493, 494, 495, 496, 497, 498, 499, 500, 
501, 502, 503, 504, 505, 506, 507, 508, 
** ... 67 like lines cut
*Shell Section, ELSET=Upper_Skin, MATERIAL=user-chosen_material
0.003
*End Part
*Part, NAME=Lower_Skin
*Node
634, -0.7044810894618289, 8.411111111111111, -0.10804403478805405
214, 0.07389038350810351, 7.844444444444449, -0.0708023850185337
119, 0.6044426370363807, 13.02, -0.09160423024203047
588, -2.156315667612641, 5.577777777777781, -0.1452021091578718
377, -3.4255880704997947, 2.916666666666667, -0.183413414280736
72, -1.7427987199409585, 0.19444444444444453, -0.10431964202245504
596, -2.7608469911818116, 4.066666666666673, -0.1579229259513905
309, 0.7590111445057025, 13.386153846153844, -0.06818388712787195
54, -1.4979871994095841, 1.9444444444444449, -0.10685642022455033
535, -2.066737796104689, 3.688888888888901, -0.12577201346424868
682, 0.48776668460955597, 10.866666666666667, -0.07859954069583822
395, -3.53517048218092, 0.38888888888888906, -0.1984374372130084
181, 2.016969613973173, 14.077777777777776, -0.0413446173782434
671, 1.2272285079742073, 12.944444444444443, -0.0649443512102457
305, 1.0681481594443474, 14.118461538461537, -0.061343200899554876
70, -1.6683699767970244, 3.5, -0.10755166455072912
471, -1.9164786221840406, 2.1388888888888893, -0.12354601722544559
633, -0.6330859806767264, 8.6, -0.10662829330729585
602, 1.5801623916614629, 14.455555555555554, -0.06274030740379108
136, -0.7093896764528602, 9.907692307692308, -0.12067714671237803
** ... 760 like lines cut
*Element, TYPE=S4R
571, 3, 5, 72, 45
572, 45, 72, 73, 46
573, 46, 73, 74, 47
574, 47, 74, 75, 48
575, 48, 75, 76, 49
576, 49, 76, 77, 50
577, 50, 77, 78, 51
578, 51, 78, 79, 52
579, 52, 79, 80, 53
580, 53, 80, 81, 54
581, 54, 81, 82, 55
582, 55, 82, 83, 56
583, 56, 83, 84, 57
584, 57, 84, 85, 58
585, 58, 85, 86, 59
586, 59, 86, 87, 60
587, 60, 87, 88, 61
588, 61, 88, 6, 4
994, 9, 12, 299, 107
995, 107, 299, 300, 108
** ... 658 like lines cut
*Element, TYPE=S3R
609, 71, 70, 536
611, 69, 68, 535
612, 68, 67, 535
614, 66, 65, 534
616, 64, 63, 533
618, 62, 2, 170
619, 170, 169, 533
648, 141, 140, 570
386, 13, 1, 31
387, 31, 32, 363
390, 34, 35, 387
394, 38, 39, 384
398, 42, 43, 381
*ElSet, ELSET=Lower_Skin
571, 572, 573, 574, 575, 576, 577, 578, 
579, 580, 581, 582, 583, 584, 585, 586, 
587, 588, 994, 995, 996, 997, 998, 999, 
1000, 1001, 1002, 1003, 1004, 1005, 1006, 1007, 
1008, 1009, 1010, 1011, 1012, 1013, 1014, 1015, 
1016, 1017, 1018, 1019, 1020, 1021, 1022, 1023, 
1024, 1025, 1026, 1027, 1028, 1029, 1030, 1031, 
1032, 1033, 1034, 1035, 1036, 1037, 1038, 1039, 
1040, 1041, 1042, 1043, 1044, 1045, 1046, 1047, 
1048, 1049, 1050, 1051, 1052, 1053, 1054, 1055, 
1056, 1057, 1058, 608, 609, 610, 611, 612, 
613, 614, 615, 616, 617, 618, 619, 620, 
621, 622, 623, 624, 625, 626, 627, 628, 
629, 630, 631, 632, 633, 634, 635, 636, 
637, 638, 639, 640, 641, 642, 643, 644, 
645, 646, 647, 648, 649, 650, 651, 652, 
653, 654, 655, 656, 657, 658, 659, 660, 
661, 662, 663, 664, 665, 666, 667, 668, 
669, 670, 671, 672, 673, 674, 675, 676, 
677, 678, 679, 680, 681, 682, 683, 684, 
** ... 67 like lines cut
*Shell Section, ELSET=Lower_Skin, MATERIAL=user-chosen_material
0.003
*End Part
*Part, NAME=Front_spar
*Node
37, -4.032809766929477, 1.8421052631578951, -0.21323481642639602
195, -3.483057580473057, 3.315789473684212, 0.14933609376278226
122, -2.564211766084731, 5.513846153846153, -0.16172126408228052
72, -1.4822322137994732, 8.076923076923077, 0.23647152250019376
85, -0.47753691524887854, 10.456923076923072, 0.19831407768763082
172, 1.3000009206483238, 14.667692307692288, -0.07621268622831724
50, -3.1824857959620205, 4.049230769230769, 0.3010456598753003
113, -3.259770049696682, 3.8661538461538463, -0.17711280809599392
45, -3.483057580473056, 3.3157894736842124, -0.18416666956751282
204, -4.101528790236529, 1.6578947368421058, 0.17585304688139103
173, 1.3772851743829848, 14.85076923076921, -0.07450251467123799
115, -3.105201542227359, 4.2323076923076925, -0.17369246498183538
170, 1.145432413179002, 14.301538461538442, -0.07963302934247578
18, -3.8953717203153713, 2.2105263157894743, 0.3535049836186199
25, -4.720000000000001, 0.0, 0.2588625000000001
98, 0.5271583833017142, 12.836923076923064, 0.16015663287506798
13, -4.238966836850633, 1.2894736842105265, 0.3846862404441949
175, 1.5318536818523067, 15.216923076923056, -0.07108217155707945
124, -2.409643258615408, 5.879999999999999, -0.15830092096812198
22, -3.6204956270871613, 2.9473684210526327, 0.32855997815815985
** ... 191 like lines cut
*Element, TYPE=S4R
177, 1, 25, 177, 7
179, 26, 27, 176, 177
180, 27, 3, 28, 176
181, 4, 47, 178, 45
182, 45, 178, 179, 44
183, 44, 179, 180, 43
184, 43, 180, 181, 42
185, 42, 181, 182, 41
186, 41, 182, 183, 40
187, 40, 183, 184, 39
188, 39, 184, 185, 38
189, 38, 185, 186, 37
190, 37, 186, 187, 36
191, 36, 187, 188, 35
192, 35, 188, 189, 34
193, 34, 189, 190, 33
194, 33, 190, 191, 32
195, 32, 191, 192, 31
196, 31, 192, 193, 30
197, 30, 193, 194, 29
** ... 102 like lines cut
*Element, TYPE=S3R
178, 25, 26, 177
235, 2, 46, 48
237, 47, 4, 112
*ElSet, ELSET=Front_spar
177, 178, 179, 180, 181, 182, 183, 184, 
185, 186, 187, 188, 189, 190, 191, 192, 
193, 194, 195, 196, 197, 198, 199, 200, 
201, 202, 203, 204, 205, 206, 207, 208, 
209, 210, 211, 212, 213, 214, 215, 216, 
217, 218, 219, 220, 221, 222, 223, 224, 
225, 226, 227, 228, 229, 230, 231, 232, 
233, 234, 235, 236, 237, 238, 239, 240, 
241, 242, 243, 244, 245, 246, 247, 248, 
249, 250, 251, 252, 253, 254, 255, 256, 
257, 258, 259, 260, 261, 262, 263, 264, 
265, 266, 267, 268, 269, 270, 271, 272, 
273, 274, 275, 276, 277, 278, 279, 280, 
281, 282, 283, 284, 285, 286, 287, 288, 
289, 290, 291, 292, 293, 294, 295, 296, 
297, 298, 299, 300, 301
*Shell Section, ELSET=Front_spar, MATERIAL=user-chosen_material
0.01
*End Part
*Part, NAME=Rear_spar
*Node
91, 1.545920103557395, 12.566666666666656, 0.11736305275630937
176, -1.4979871994095841, 1.9444444444444453, 0.07589801810341892
142, 0.8982270267357066, 10.488888888888884, -0.058305150262046926
12, -1.6067923196457505, 1.1666666666666667, 0.27743947385883294
7, -1.7427987199409585, 0.19444444444444453, 0.3009232456431388
100, 2.07585080277514, 14.266666666666648, 0.09791642110252388
66, 0.07389038350810173, 7.844444444444445, 0.1713814740168246
35, -1.4979871994095841, 1.9444444444444449, -0.10685642022455036
14, -1.5523897595276672, 1.5555555555555558, 0.26804596514511053
27, -1.715597439881917, 0.38888888888888906, -0.12237928404491011
178, -1.5523897595276672, 1.5555555555555558, 0.07865441448273514
170, -1.3347795190553344, 3.111111111111112, 0.06762882896547029
46, -1.1037333925313357, 4.066666666666667, 0.2145962110252369
78, 0.7804646491317635, 10.111111111111107, 0.14545263181177726
154, 1.6048012923593669, 12.755555555555542, -0.04759323475648685
3, -1.77, 0.0, -0.12626000000000004
175, -1.4707859193505426, 2.1388888888888897, 0.0745198199137608
157, 1.7814448587652818, 13.322222222222209, -0.04491525588009683
87, 1.3103953483495083, 11.811111111111103, 0.1260060001579918
99, 2.0169696139731683, 14.077777777777762, 0.10007715795294449
** ... 164 like lines cut
*Element, TYPE=S3R
206, 2, 43, 44
170, 24, 25, 168
*Element, TYPE=S4R
207, 43, 4, 106, 44
208, 6, 5, 105, 167
209, 167, 105, 104, 166
210, 166, 104, 103, 165
211, 165, 103, 102, 164
212, 164, 102, 101, 163
213, 163, 101, 100, 162
214, 162, 100, 99, 161
215, 161, 99, 98, 160
216, 160, 98, 97, 159
217, 159, 97, 96, 158
218, 158, 96, 95, 157
219, 157, 95, 94, 156
220, 156, 94, 93, 155
221, 155, 93, 92, 154
222, 154, 92, 91, 153
223, 153, 91, 90, 152
224, 152, 90, 89, 151
225, 151, 89, 88, 150
226, 150, 88, 87, 149
** ... 79 like lines cut
*ElSet, ELSET=Rear_spar
206, 207, 208, 209, 210, 211, 212, 213, 
214, 215, 216, 217, 218, 219, 220, 221, 
222, 223, 224, 225, 226, 227, 228, 229, 
230, 231, 232, 233, 234, 235, 236, 237, 
238, 239, 240, 241, 242, 243, 244, 245, 
246, 247, 248, 249, 250, 251, 252, 253, 
254, 255, 256, 257, 258, 259, 260, 261, 
262, 263, 264, 265, 266, 267, 268, 269, 
169, 170, 171, 172, 173, 174, 175, 176, 
177, 178, 179, 180, 181, 182, 183, 184, 
185, 186, 187, 188, 189, 190, 191, 192, 
193, 194, 195, 196, 197, 198, 199, 200, 
201, 202, 203, 204, 205
*Shell Section, ELSET=Rear_spar, MATERIAL=user-chosen_material
0.01
*End Part
*Part, NAME=Upper_stringers
*Node
344, -0.4224554761813677, 7.269879199281386, 0.19224532748252757
114, -2.4999700724668097, 2.1502297483171247, 0.2944275638622098
696, 1.5625221257728246, 14.479087425228524, 0.11849173996659572
700, 1.843665148156103, 15.222828059862703, 0.10793419146808673
847, -1.4727734239027643, 7.353933410112692, 0.23384881159469256
787, -0.8974793200808632, 7.970647183581377, 0.16087532616130842
980, -1.1065308952645243, 8.268547997133496, 0.17001973441306187
800, 0.016235502664792623, 10.387804246142466, 0.12656329354115434
559, 1.0659987463251193, 12.416589018396627, 0.13820615431748468
649, -1.7409083872306987, 5.740134968276905, 0.24254293482407638
594, -0.8341079831702505, 7.2264898457318, 0.15710827073635455
605, -0.10614331222947916, 9.271782084503101, 0.12995388085583076
502, 1.4159646361012246, 13.548965988267868, 0.1231721141208221
446, 2.0523901957616024, 14.840589487145547, 0.048683701285959904
796, -0.26490751971848603, 9.644063611508285, 0.1371208420396633
981, -1.0332823895368763, 8.451622035987253, 0.16725277702690683
813, 0.9299503254104481, 12.80496130870355, 0.09225126092100025
697, 1.632807881368644, 14.665022583887069, 0.11585235284196847
353, 0.14505596871194806, 8.969866187050618, 0.17123711941822595
637, 2.011572094143674, 15.221723142746885, 0.050959292112488855
** ... 998 like lines cut
*Element, TYPE=S4R
1504, 42, 700, 826, 46
1505, 700, 699, 825, 826
1506, 699, 698, 824, 825
1507, 698, 697, 823, 824
1508, 697, 696, 822, 823
1509, 696, 695, 821, 822
1510, 695, 694, 820, 821
1511, 694, 693, 819, 820
1512, 693, 692, 818, 819
1513, 692, 691, 817, 818
1514, 691, 690, 816, 817
1515, 690, 689, 815, 816
1516, 689, 688, 814, 815
1517, 688, 687, 813, 814
1518, 687, 686, 812, 813
1519, 686, 685, 811, 812
1520, 685, 684, 810, 811
1521, 684, 683, 809, 810
1522, 683, 682, 808, 809
1523, 682, 681, 807, 808
** ... 640 like lines cut
*Element, TYPE=S3R
1145, 26, 23, 226
1184, 5, 31, 325
1569, 26, 49, 891
1440, 19, 43, 701
1311, 12, 37, 512
1032, 5, 2, 69
1069, 12, 9, 120
1106, 19, 16, 172
*ElSet, ELSET=Upper_stringers
1504, 1505, 1506, 1507, 1508, 1509, 1510, 1511, 
1512, 1513, 1514, 1515, 1516, 1517, 1518, 1519, 
1520, 1521, 1522, 1523, 1524, 1525, 1526, 1527, 
1528, 1529, 1530, 1531, 1532, 1533, 1534, 1535, 
1536, 1537, 1538, 1539, 1540, 1541, 1542, 1543, 
1544, 1545, 1546, 1547, 1548, 1549, 1550, 1551, 
1552, 1553, 1554, 1555, 1556, 1557, 1558, 1559, 
1560, 1561, 1562, 1563, 1564, 1565, 1566, 1567, 
1144, 1145, 1146, 1147, 1148, 1149, 1150, 1151, 
1152, 1153, 1154, 1155, 1156, 1157, 1158, 1159, 
1160, 1161, 1162, 1163, 1634, 1635, 1636, 1637, 
1638, 1639, 1640, 1641, 1642, 1643, 1644, 1645, 
1646, 1647, 1648, 1649, 1650, 1651, 1652, 1653, 
1654, 1655, 1656, 1657, 1658, 1659, 1660, 1661, 
1662, 1663, 1664, 1665, 1666, 1667, 1668, 1669, 
1670, 1671, 1672, 1673, 1674, 1675, 1676, 1677, 
1678, 1679, 1680, 1681, 1682, 1683, 1684, 1685, 
1686, 1687, 1688, 1689, 1690, 1691, 1692, 1693, 
1694, 1695, 1696, 1697, 1698, 1183, 1184, 1185, 
1186, 1187, 1188, 1189, 1190, 1191, 1192, 1193, 
** ... 64 like lines cut
*Shell Section, ELSET=Upper_stringers, MATERIAL=user-chosen_material
0.005
*End Part
*Part, NAME=Lower_stringers
*Node
486, 0.4041892348047001, 10.557240223260258, -0.08063309633482796
987, -0.5473709278733865, 9.531831531289956, -0.06191437132813085
928, -0.22757618175896743, 10.466203743229073, -0.10405042239046942
605, -0.059033655472484986, 9.255352289307968, -0.03918804532323894
315, 1.6583461499191472, 13.503188931823784, -0.052666154280761185
21, -2.608847946037953, 3.511871834270022, -0.04465290082500685
927, -0.30081971380912104, 10.283127715064914, -0.10559159073767913
552, 0.5556075817189186, 11.131815505808147, -0.07685697819512936
328, -1.47869789659367, 4.263479547673851, -0.10486063230743481
1008, 0.9907432451798387, 13.376428122737313, -0.029549836036727235
161, -3.2273909851171068, 1.3029480614621638, -0.17962491606546174
514, -1.9590309655000857, 4.066207658834843, -0.12329226834656176
92, -2.1915495246411094, 1.1746427142068132, -0.03690357184619406
982, -0.9135885881241543, 8.616451390469157, -0.06962021306417933
742, 0.3676195992444038, 11.318207255333792, -0.0862550527884336
620, 0.9335868236929117, 12.044408018376378, -0.020858325526620883
281, -0.4854694709256645, 7.0809769823104, -0.08894478454336835
276, -0.800736473991078, 6.136534048558432, -0.09427987722904586
214, -3.816787061694184, 1.1207856508254057, -0.20498530886719984
263, -1.6204306819611527, 3.680982420803315, -0.10815111821180742
** ... 998 like lines cut
*Element, TYPE=S4R
1068, 11, 12, 120, 137
1070, 8, 10, 121, 104
1071, 104, 121, 122, 105
1072, 105, 122, 123, 106
1073, 106, 123, 124, 107
1074, 107, 124, 125, 108
1075, 108, 125, 126, 109
1076, 109, 126, 127, 110
1077, 110, 127, 128, 111
1078, 111, 128, 129, 112
1079, 112, 129, 130, 113
1080, 113, 130, 131, 114
1081, 114, 131, 132, 115
1082, 115, 132, 133, 116
1083, 116, 133, 134, 117
1084, 117, 134, 135, 118
1085, 118, 135, 136, 119
1086, 119, 136, 137, 120
1087, 14, 154, 120, 9
1088, 154, 153, 119, 120
** ... 640 like lines cut
*Element, TYPE=S3R
1069, 12, 9, 120
1106, 19, 16, 172
1145, 26, 23, 226
1032, 5, 2, 69
1310, 35, 12, 449
1568, 47, 26, 827
1439, 41, 19, 638
1183, 29, 5, 263
*ElSet, ELSET=Lower_stringers
1068, 1069, 1070, 1071, 1072, 1073, 1074, 1075, 
1076, 1077, 1078, 1079, 1080, 1081, 1082, 1083, 
1084, 1085, 1086, 1087, 1088, 1089, 1090, 1091, 
1092, 1093, 1094, 1095, 1096, 1097, 1098, 1099, 
1100, 1101, 1102, 1103, 1104, 1105, 1106, 1107, 
1108, 1109, 1110, 1111, 1112, 1113, 1114, 1115, 
1116, 1117, 1118, 1119, 1120, 1121, 1122, 1123, 
1124, 1125, 1126, 1127, 1128, 1129, 1130, 1131, 
1132, 1133, 1134, 1135, 1136, 1137, 1138, 1139, 
1140, 1141, 1142, 1143, 1164, 1165, 1166, 1167, 
1168, 1169, 1170, 1171, 1172, 1173, 1174, 1175, 
1176, 1177, 1178, 1179, 1180, 1181, 1182, 1050, 
1051, 1052, 1053, 1054, 1055, 1056, 1057, 1058, 
1059, 1060, 1061, 1062, 1063, 1064, 1065, 1066, 
1067, 1144, 1145, 1146, 1147, 1148, 1149, 1150, 
1151, 1152, 1153, 1154, 1155, 1156, 1157, 1158, 
1159, 1160, 1161, 1162, 1163, 1031, 1032, 1033, 
1034, 1035, 1036, 1037, 1038, 1039, 1040, 1041, 
1042, 1043, 1044, 1045, 1046, 1047, 1048, 1049, 
1310, 1311, 1312, 1313, 1314, 1315, 1316, 1317, 
** ... 64 like lines cut
*Shell Section, ELSET=Lower_stringers, MATERIAL=user-chosen_material
0.005
*End Part
*Part, NAME=Upper_Skin_centre_section
*Node
220, -2.753333333333334, -0.19230769230769218, 0.34652666666666665
21, -3.7366666666666672, 0.0, 0.38743333333333335
145, -3.7366666666666672, -1.1538461538461537, 0.3874333333333333
38, -1.77, -1.5384615384615385, 0.30562
35, -1.77, -0.9615384615384615, 0.30562
10, -4.720000000000001, -1.153846153846154, 0.42834
207, -2.5566666666666666, -0.38461538461538464, 0.33834533333333333
121, -2.95, -1.5384615384615385, 0.354708
72, -4.326666666666667, -2.115384615384615, 0.4119773333333333
12, -4.720000000000001, -1.5384615384615385, 0.42834
79, -2.95, -2.115384615384615, 0.354708
155, -4.523333333333334, -0.9615384615384615, 0.4201586666666667
213, -4.130000000000001, -0.19230769230769218, 0.40379600000000004
215, -3.7366666666666672, -0.19230769230769218, 0.38743333333333335
29, -2.163333333333334, 0.0, 0.32198266666666664
146, -3.5400000000000005, -1.153846153846154, 0.379252
98, -1.9666666666666688, -1.923076923076923, 0.31380133333333343
134, -3.1466666666666674, -1.3461538461538463, 0.36288933333333334
16, -4.720000000000001, -2.3076923076923075, 0.42834
15, -4.720000000000001, -2.115384615384615, 0.42834
** ... 204 like lines cut
*Element, TYPE=S4R
57, 2, 16, 57, 43
58, 43, 57, 58, 44
59, 44, 58, 59, 45
60, 45, 59, 60, 46
61, 46, 60, 61, 47
62, 47, 61, 62, 48
63, 48, 62, 63, 49
64, 49, 63, 64, 50
65, 50, 64, 65, 51
66, 51, 65, 66, 52
67, 52, 66, 67, 53
68, 53, 67, 68, 54
69, 54, 68, 69, 55
70, 55, 69, 70, 56
71, 56, 70, 42, 4
72, 16, 15, 71, 57
73, 57, 71, 72, 58
74, 58, 72, 73, 59
75, 59, 73, 74, 60
76, 60, 74, 75, 61
** ... 175 like lines cut
*ElSet, ELSET=Upper_Skin_centre_section
57, 58, 59, 60, 61, 62, 63, 64, 
65, 66, 67, 68, 69, 70, 71, 72, 
73, 74, 75, 76, 77, 78, 79, 80, 
81, 82, 83, 84, 85, 86, 87, 88, 
89, 90, 91, 92, 93, 94, 95, 96, 
97, 98, 99, 100, 101, 102, 103, 104, 
105, 106, 107, 108, 109, 110, 111, 112, 
113, 114, 115, 116, 117, 118, 119, 120, 
121, 122, 123, 124, 125, 126, 127, 128, 
129, 130, 131, 132, 133, 134, 135, 136, 
137, 138, 139, 140, 141, 142, 143, 144, 
145, 146, 147, 148, 149, 150, 151, 152, 
153, 154, 155, 156, 157, 158, 159, 160, 
161, 162, 163, 164, 165, 166, 167, 168, 
169, 170, 171, 172, 173, 174, 175, 176, 
177, 178, 179, 180, 181, 182, 183, 184, 
185, 186, 187, 188, 189, 190, 191, 192, 
193, 194, 195, 196, 197, 198, 199, 200, 
201, 202, 203, 204, 205, 206, 207, 208, 
209, 210, 211, 212, 213, 214, 215, 216, 
** ... 5 like lines cut
*Shell Section, ELSET=Upper_Skin_centre_section, MATERIAL=user-chosen_material
0.003
*End Part
*Part, NAME=Lower_Skin_centre_section
*Node
173, -3.7366666666666672, -0.7692307692307693, -0.20846666666666663
122, -2.753333333333333, -1.5384615384615385, -0.1673633333333333
171, -4.130000000000001, -0.7692307692307693, -0.224908
120, -3.1466666666666665, -1.5384615384615385, -0.18380466666666667
13, -4.720000000000001, -1.7307692307692308, -0.24957000000000001
127, -4.523333333333334, -1.3461538461538463, -0.2413493333333333
43, -4.523333333333334, -2.5, -0.24134933333333333
63, -3.3433333333333337, -2.3076923076923075, -0.19202533333333333
8, -4.720000000000001, -0.7692307692307693, -0.24957000000000001
197, -4.523333333333334, -0.38461538461538464, -0.24134933333333333
84, -1.9666666666666677, -2.1153846153846154, -0.13448066666666672
91, -3.3433333333333337, -1.923076923076923, -0.19202533333333333
153, -2.163333333333333, -1.153846153846154, -0.14270133333333335
203, -3.3433333333333337, -0.38461538461538464, -0.19202533333333333
135, -2.95, -1.3461538461538463, -0.17558400000000002
112, -1.9666666666666672, -1.7307692307692308, -0.1344806666666667
31, -1.77, -0.19230769230769218, -0.12626
3, -1.77, 0.0, -0.12626
22, -3.5400000000000005, 0.0, -0.20024599999999998
133, -3.3433333333333337, -1.3461538461538463, -0.19202533333333333
** ... 204 like lines cut
*Element, TYPE=S4R
57, 2, 16, 57, 43
58, 43, 57, 58, 44
59, 44, 58, 59, 45
60, 45, 59, 60, 46
61, 46, 60, 61, 47
62, 47, 61, 62, 48
63, 48, 62, 63, 49
64, 49, 63, 64, 50
65, 50, 64, 65, 51
66, 51, 65, 66, 52
67, 52, 66, 67, 53
68, 53, 67, 68, 54
69, 54, 68, 69, 55
70, 55, 69, 70, 56
71, 56, 70, 42, 4
72, 16, 15, 71, 57
73, 57, 71, 72, 58
74, 58, 72, 73, 59
75, 59, 73, 74, 60
76, 60, 74, 75, 61
** ... 175 like lines cut
*ElSet, ELSET=Lower_Skin_centre_section
57, 58, 59, 60, 61, 62, 63, 64, 
65, 66, 67, 68, 69, 70, 71, 72, 
73, 74, 75, 76, 77, 78, 79, 80, 
81, 82, 83, 84, 85, 86, 87, 88, 
89, 90, 91, 92, 93, 94, 95, 96, 
97, 98, 99, 100, 101, 102, 103, 104, 
105, 106, 107, 108, 109, 110, 111, 112, 
113, 114, 115, 116, 117, 118, 119, 120, 
121, 122, 123, 124, 125, 126, 127, 128, 
129, 130, 131, 132, 133, 134, 135, 136, 
137, 138, 139, 140, 141, 142, 143, 144, 
145, 146, 147, 148, 149, 150, 151, 152, 
153, 154, 155, 156, 157, 158, 159, 160, 
161, 162, 163, 164, 165, 166, 167, 168, 
169, 170, 171, 172, 173, 174, 175, 176, 
177, 178, 179, 180, 181, 182, 183, 184, 
185, 186, 187, 188, 189, 190, 191, 192, 
193, 194, 195, 196, 197, 198, 199, 200, 
201, 202, 203, 204, 205, 206, 207, 208, 
209, 210, 211, 212, 213, 214, 215, 216, 
** ... 5 like lines cut
*Shell Section, ELSET=Lower_Skin_centre_section, MATERIAL=user-chosen_material
0.003
*End Part
*Part, NAME=Front_spar_centre_section
*Node
43, -4.720000000000001, -1.923076923076923, -0.08009250000000007
21, -4.720000000000001, -0.38461538461538464, -0.24957000000000001
70, -4.720000000000001, -0.19230769230769218, -0.08009250000000007
58, -4.720000000000001, -0.9615384615384617, -0.08009250000000007
4, -4.720000000000001, -2.5, -0.24957000000000001
36, -4.720000000000001, -2.3076923076923075, 0.08938499999999999
39, -4.720000000000001, -2.115384615384615, 0.08938499999999999
10, -4.720000000000001, -1.153846153846154, 0.42834
64, -4.720000000000001, -0.5769230769230771, -0.08009250000000007
28, -4.720000000000001, -1.7307692307692308, -0.24957000000000001
67, -4.720000000000001, -0.38461538461538464, -0.08009250000000007
47, -4.720000000000001, -1.5384615384615385, 0.2588625000000001
56, -4.720000000000001, -0.9615384615384615, 0.2588625000000001
51, -4.720000000000001, -1.3461538461538463, 0.08938499999999999
34, -4.720000000000001, -2.5, -0.08009250000000007
69, -4.720000000000001, -0.19230769230769218, 0.08938499999999985
9, -4.720000000000001, -0.9615384615384615, 0.42834
17, -4.720000000000001, 0.0, 0.2588625000000001
42, -4.720000000000001, -1.923076923076923, 0.08938499999999999
12, -4.720000000000001, -1.5384615384615385, 0.42834
** ... 50 like lines cut
*Element, TYPE=S4R
35, 2, 16, 35, 32
36, 32, 35, 36, 33
37, 33, 36, 37, 34
38, 34, 37, 31, 4
39, 16, 15, 38, 35
40, 35, 38, 39, 36
41, 36, 39, 40, 37
42, 37, 40, 30, 31
43, 15, 14, 41, 38
44, 38, 41, 42, 39
45, 39, 42, 43, 40
46, 40, 43, 29, 30
47, 14, 13, 44, 41
48, 41, 44, 45, 42
49, 42, 45, 46, 43
50, 43, 46, 28, 29
51, 13, 12, 47, 44
52, 44, 47, 48, 45
53, 45, 48, 49, 46
54, 46, 49, 27, 28
** ... 32 like lines cut
*ElSet, ELSET=Front_spar_centre_section
35, 36, 37, 38, 39, 40, 41, 42, 
43, 44, 45, 46, 47, 48, 49, 50, 
51, 52, 53, 54, 55, 56, 57, 58, 
59, 60, 61, 62, 63, 64, 65, 66, 
67, 68, 69, 70, 71, 72, 73, 74, 
75, 76, 77, 78, 79, 80, 81, 82, 
83, 84, 85, 86
*Shell Section, ELSET=Front_spar_centre_section, MATERIAL=user-chosen_material
0.01
*End Part
*Part, NAME=Rear_spar_centre_section
*Node
45, -1.77, -1.1538461538461537, 0.16166000000000003
50, -1.77, -0.7692307692307693, 0.017699999999999994
12, -1.77, -1.5384615384615385, 0.30562
9, -1.77, -0.9615384615384615, 0.30562
33, -1.77, -2.3076923076923075, 0.16166000000000003
10, -1.77, -1.153846153846154, 0.30562
55, -1.77, -0.19230769230769218, 0.16166000000000003
17, -1.77, 0.0, 0.16166000000000003
43, -1.77, -1.3461538461538463, 0.16166000000000003
53, -1.77, -0.38461538461538464, 0.16166000000000003
29, -1.77, -2.115384615384615, -0.12626000000000004
31, -1.77, -2.5, 0.16166000000000003
51, -1.77, -0.5769230769230771, 0.16166000000000003
15, -1.77, -2.115384615384615, 0.30562
48, -1.77, -0.9615384615384615, 0.017699999999999994
39, -1.77, -1.7307692307692308, 0.16166000000000003
30, -1.77, -2.3076923076923075, -0.12626000000000004
46, -1.77, -1.153846153846154, 0.017699999999999994
19, -1.77, -0.19230769230769218, -0.12626000000000004
3, -1.77, 0.0, -0.12626000000000004
** ... 36 like lines cut
*Element, TYPE=S4R
33, 2, 16, 33, 31
34, 31, 33, 34, 32
35, 32, 34, 30, 4
36, 16, 15, 35, 33
37, 33, 35, 36, 34
38, 34, 36, 29, 30
39, 15, 14, 37, 35
40, 35, 37, 38, 36
41, 36, 38, 28, 29
42, 14, 13, 39, 37
43, 37, 39, 40, 38
44, 38, 40, 27, 28
45, 13, 12, 41, 39
46, 39, 41, 42, 40
47, 40, 42, 26, 27
48, 12, 11, 43, 41
49, 41, 43, 44, 42
50, 42, 44, 25, 26
51, 11, 10, 45, 43
52, 43, 45, 46, 44
** ... 19 like lines cut
*ElSet, ELSET=Rear_spar_centre_section
33, 34, 35, 36, 37, 38, 39, 40, 
41, 42, 43, 44, 45, 46, 47, 48, 
49, 50, 51, 52, 53, 54, 55, 56, 
57, 58, 59, 60, 61, 62, 63, 64, 
65, 66, 67, 68, 69, 70, 71
*Shell Section, ELSET=Rear_spar_centre_section, MATERIAL=user-chosen_material
0.01
*End Part
*Part, NAME=Ribs_centre_section
*Node
83, -3.9333333333333336, -0.5, -0.21668733333333334
19, -1.77, -2.0, -0.12626
11, -1.77, -1.0, -0.12626
201, -1.9666666666666666, 0.0, 0.014946666666666678
281, -3.736666666666667, -1.5, -0.009833333333333352
192, -2.753333333333334, 0.0, 0.17523000000000008
230, -2.1633333333333336, -0.5, 0.167088
33, -2.163333333333334, 0.0, 0.32198266666666664
210, -3.7366666666666672, 0.0, -0.009833333333333402
44, -3.7366666666666672, 0.0, -0.20846666666666663
175, -2.5566666666666666, -2.0, -0.15914266666666665
109, -2.5566666666666666, -1.0, -0.15914266666666665
174, -2.3599999999999994, -2.0, -0.150922
108, -2.3599999999999994, -1.0, -0.150922
65, -4.13, -0.5, 0.40379599999999993
290, -2.9500000000000006, -1.5, 0.177944
255, -4.13, -1.0, -0.015340000000000057
274, -2.3599999999999994, -1.5, 0.009440000000000006
151, -4.326666666666666, -1.5, -0.23312866666666665
67, -4.523333333333333, -0.5, 0.4201586666666666
** ... 305 like lines cut
*Element, TYPE=S4R
370, 18, 171, 299, 166
371, 171, 170, 298, 299
373, 169, 20, 185, 298
374, 19, 167, 300, 172
375, 172, 300, 301, 173
376, 173, 301, 302, 174
377, 174, 302, 303, 175
378, 175, 303, 304, 176
379, 176, 304, 305, 177
380, 177, 305, 306, 178
381, 178, 306, 307, 179
382, 179, 307, 308, 180
383, 180, 308, 309, 181
384, 181, 309, 310, 182
385, 182, 310, 311, 183
386, 183, 311, 312, 184
387, 184, 312, 298, 185
388, 167, 168, 313, 300
389, 300, 313, 314, 301
390, 301, 314, 315, 302
** ... 205 like lines cut
*Element, TYPE=S3R
372, 170, 169, 298
234, 71, 70, 214
280, 104, 103, 242
187, 37, 36, 187
326, 137, 136, 270
*ElSet, ELSET=Ribs_centre_section
370, 371, 372, 373, 374, 375, 376, 377, 
378, 379, 380, 381, 382, 383, 384, 385, 
386, 387, 388, 389, 390, 391, 392, 393, 
394, 395, 396, 397, 398, 399, 400, 401, 
402, 403, 404, 405, 406, 407, 408, 409, 
410, 411, 412, 413, 414, 415, 232, 233, 
234, 235, 236, 237, 238, 239, 240, 241, 
242, 243, 244, 245, 246, 247, 248, 249, 
250, 251, 252, 253, 254, 255, 256, 257, 
258, 259, 260, 261, 262, 263, 264, 265, 
266, 267, 268, 269, 270, 271, 272, 273, 
274, 275, 276, 277, 278, 279, 280, 281, 
282, 283, 284, 285, 286, 287, 288, 289, 
290, 291, 292, 293, 294, 295, 296, 297, 
298, 299, 300, 301, 302, 303, 304, 305, 
306, 307, 308, 309, 310, 311, 312, 313, 
314, 315, 316, 317, 318, 319, 320, 321, 
322, 323, 186, 187, 188, 189, 190, 191, 
192, 193, 194, 195, 196, 197, 198, 199, 
200, 201, 202, 203, 204, 205, 206, 207, 
** ... 9 like lines cut
*Shell Section, ELSET=Ribs_centre_section, MATERIAL=user-chosen_material
0.005
*End Part
*Part, NAME=Upper_stringers_centre_section
*Node
87, -2.9000000000000004, -1.9230769230769231, 0.25470800000000005
22, -4.180000000000001, 0.0, 0.4037959999999998
74, -3.0, -2.1153846153846154, 0.3547080000000001
107, -3.49, -0.3846153846153847, 0.37925199999999987
33, -2.3100000000000005, -0.7692307692307693, 0.33016399999999996
76, -3.0, -1.7307692307692308, 0.354708
54, -2.3100000000000005, -1.3461538461538463, 0.23016400000000004
136, -4.080000000000001, -1.7307692307692308, 0.40379600000000004
81, -3.0, -0.7692307692307693, 0.3547079999999999
42, -2.41, -1.3461538461538463, 0.330164
61, -2.9000000000000004, -2.3076923076923075, 0.3547080000000001
167, -4.080000000000001, -0.3846153846153847, 0.3037959999999999
17, -3.49, -2.5, 0.27925200000000017
103, -3.49, -1.153846153846154, 0.379252
29, -2.3100000000000005, -1.5384615384615385, 0.33016400000000007
38, -2.41, -2.1153846153846154, 0.3301640000000001
155, -4.180000000000001, -0.3846153846153847, 0.4037959999999999
86, -2.9000000000000004, -2.1153846153846154, 0.2547080000000001
132, -3.49, -0.1923076923076923, 0.2792519999999999
137, -4.080000000000001, -1.5384615384615385, 0.40379600000000004
** ... 148 like lines cut
*Element, TYPE=S4R
173, 2, 36, 48, 4
174, 36, 35, 47, 48
175, 35, 34, 46, 47
176, 34, 33, 45, 46
177, 33, 32, 44, 45
178, 32, 31, 43, 44
179, 31, 30, 42, 43
180, 30, 29, 41, 42
181, 29, 28, 40, 41
182, 28, 27, 39, 40
183, 27, 26, 38, 39
184, 26, 25, 37, 38
185, 25, 1, 3, 37
238, 18, 132, 108, 14
239, 132, 131, 107, 108
240, 131, 130, 106, 107
241, 130, 129, 105, 106
242, 129, 128, 104, 105
243, 128, 127, 103, 104
244, 127, 126, 102, 103
** ... 84 like lines cut
*ElSet, ELSET=Upper_stringers_centre_section
173, 174, 175, 176, 177, 178, 179, 180, 
181, 182, 183, 184, 185, 238, 239, 240, 
241, 242, 243, 244, 245, 246, 247, 248, 
249, 250, 251, 252, 253, 254, 255, 256, 
257, 258, 259, 260, 261, 262, 263, 186, 
187, 188, 189, 190, 191, 192, 193, 194, 
195, 196, 197, 198, 212, 213, 214, 215, 
216, 217, 218, 219, 220, 221, 222, 223, 
224, 225, 226, 227, 228, 229, 230, 231, 
232, 233, 234, 235, 236, 237, 264, 265, 
266, 267, 268, 269, 270, 271, 272, 273, 
274, 275, 276, 199, 200, 201, 202, 203, 
204, 205, 206, 207, 208, 209, 210, 211
*Shell Section, ELSET=Upper_stringers_centre_section, MATERIAL=user-chosen_material
0.005
*End Part
*Part, NAME=Lower_stringers_centre_section
*Node
20, -4.080000000000001, 0.0, -0.22490800000000016
31, -2.3100000000000005, -1.153846153846154, -0.15092200000000003
128, -3.49, -0.9615384615384616, -0.10024600000000003
47, -2.41, -0.3846153846153847, -0.15092200000000014
14, -3.49, 0.0, -0.20024600000000015
117, -3.59, -0.7692307692307693, -0.20024600000000004
48, -2.41, -0.1923076923076923, -0.15092200000000017
58, -2.3100000000000005, -0.576923076923077, -0.050922000000000106
95, -2.9000000000000004, -0.3846153846153847, -0.07558400000000008
149, -4.180000000000001, -1.5384615384615385, -0.22490799999999997
67, -2.9000000000000004, -1.153846153846154, -0.175584
159, -4.080000000000001, -1.9230769230769231, -0.12490799999999992
82, -3.0, -0.576923076923077, -0.17558400000000007
43, -2.41, -1.153846153846154, -0.15092200000000003
168, -4.080000000000001, -0.1923076923076923, -0.12490800000000013
143, -4.080000000000001, -0.3846153846153847, -0.2249080000000001
17, -3.49, -2.5, -0.10024599999999984
118, -3.59, -0.576923076923077, -0.20024600000000006
158, -4.080000000000001, -2.1153846153846154, -0.1249079999999999
98, -3.49, -2.1153846153846154, -0.20024599999999987
** ... 148 like lines cut
*Element, TYPE=S4R
212, 8, 72, 96, 12
213, 72, 71, 95, 96
214, 71, 70, 94, 95
215, 70, 69, 93, 94
216, 69, 68, 92, 93
217, 68, 67, 91, 92
218, 67, 66, 90, 91
219, 66, 65, 89, 90
220, 65, 64, 88, 89
221, 64, 63, 87, 88
222, 63, 62, 86, 87
223, 62, 61, 85, 86
224, 61, 7, 11, 85
225, 14, 108, 120, 16
226, 108, 107, 119, 120
227, 107, 106, 118, 119
228, 106, 105, 117, 118
229, 105, 104, 116, 117
230, 104, 103, 115, 116
231, 103, 102, 114, 115
** ... 84 like lines cut
*ElSet, ELSET=Lower_stringers_centre_section
212, 213, 214, 215, 216, 217, 218, 219, 
220, 221, 222, 223, 224, 225, 226, 227, 
228, 229, 230, 231, 232, 233, 234, 235, 
236, 237, 264, 265, 266, 267, 268, 269, 
270, 271, 272, 273, 274, 275, 276, 173, 
174, 175, 176, 177, 178, 179, 180, 181, 
182, 183, 184, 185, 186, 187, 188, 189, 
190, 191, 192, 193, 194, 195, 196, 197, 
198, 199, 200, 201, 202, 203, 204, 205, 
206, 207, 208, 209, 210, 211, 251, 252, 
253, 254, 255, 256, 257, 258, 259, 260, 
261, 262, 263, 238, 239, 240, 241, 242, 
243, 244, 245, 246, 247, 248, 249, 250
*Shell Section, ELSET=Lower_stringers_centre_section, MATERIAL=user-chosen_material
0.005
*End Part
** 
** ASSEMBLY
** 
*Assembly, NAME=Assembly
*Instance, NAME=Upper_Skin-instance, PART=Upper_Skin
*End Instance
*Instance, NAME=Lower_Skin-instance, PART=Lower_Skin
*End Instance
*Instance, NAME=Front_spar-instance, PART=Front_spar
*End Instance
*Instance, NAME=Rear_spar-instance, PART=Rear_spar
*End Instance
*Instance, NAME=Upper_stringers-instance, PART=Upper_stringers
*End Instance
*Instance, NAME=Lower_stringers-instance, PART=Lower_stringers
*End Instance
*Instance, NAME=Upper_Skin_centre_section-instance, PART=Upper_Skin_centre_section
*End Instance
*Instance, NAME=Lower_Skin_centre_section-instance, PART=Lower_Skin_centre_section
*End Instance
*Instance, NAME=Front_spar_centre_section-instance, PART=Front_spar_centre_section
*End Instance
*Instance, NAME=Rear_spar_centre_section-instance, PART=Rear_spar_centre_section
*End Instance
*Instance, NAME=Ribs_centre_section-instance, PART=Ribs_centre_section
*End Instance
*Instance, NAME=Upper_stringers_centre_section-instance, PART=Upper_stringers_centre_section
*End Instance
*Instance, NAME=Lower_stringers_centre_section-instance, PART=Lower_stringers_centre_section
*End Instance
*ElSet, ELSET=None-SET, INSTANCE=Upper_Skin-instance
571, 572, 573, 574, 575, 576, 577, 578, 
579, 580, 581, 582, 583, 584, 585, 586, 
587, 588
*ElSet, ELSET=None-SET-1, INSTANCE=Upper_Skin-instance
589, 590, 591, 592, 593, 594, 595, 596, 
597, 598, 599, 600, 601, 602, 603, 604, 
605, 606, 607
*ElSet, ELSET=None-SET-2, INSTANCE=Lower_Skin-instance
589, 590, 591, 592, 593, 594, 595, 596, 
597, 598, 599, 600, 601, 602, 603, 604, 
605, 606, 607
*ElSet, ELSET=None-SET-3, INSTANCE=Upper_Skin-instance
932, 933, 934, 935, 936, 937, 938, 939, 
940, 941, 942, 943, 944, 945, 946, 947, 
948, 949, 950, 951, 952, 953, 954, 955, 
956, 957, 958, 959, 960, 961, 962, 963, 
964, 965, 966, 967, 968, 969, 970, 971, 
972, 973, 974, 975, 976, 977, 978, 979, 
980, 981, 982, 983, 984, 985, 986, 987, 
988, 989, 990, 991, 992, 993, 994
*ElSet, ELSET=None-SET-4, INSTANCE=Upper_Skin-instance
995, 996, 997, 998, 999, 1000, 1001, 1002, 
1003, 1004, 1005, 1006, 1007, 1008, 1009, 1010, 
1011, 1012, 1013, 1014, 1015, 1016, 1017, 1018, 
1019, 1020, 1021, 1022, 1023, 1024, 1025, 1026, 
1027, 1028, 1029, 1030, 1031, 1032, 1033, 1034, 
1035, 1036, 1037, 1038, 1039, 1040, 1041, 1042, 
1043, 1044, 1045, 1046, 1047, 1048, 1049, 1050, 
1051, 1052, 1053, 1054, 1055, 1056, 1057, 1058, 
1059
*ElSet, ELSET=None-SET-5, INSTANCE=Lower_Skin-instance
571, 572, 573, 574, 575, 576, 577, 578, 
579, 580, 581, 582, 583, 584, 585, 586, 
587, 588
*ElSet, ELSET=None-SET-6, INSTANCE=Lower_Skin-instance
589, 590, 591, 592, 593, 594, 595, 596, 
597, 598, 599, 600, 601, 602, 603, 604, 
605, 606, 607
*ElSet, ELSET=None-SET-7, INSTANCE=Lower_Skin-instance
931, 932, 933, 934, 935, 936, 937, 938, 
939, 940, 941, 942, 943, 944, 945, 946, 
947, 948, 949, 950, 951, 952, 953, 954, 
955, 956, 957, 958, 959, 960, 961, 962, 
963, 964, 965, 966, 967, 968, 969, 970, 
971, 972, 973, 974, 975, 976, 977, 978, 
979, 980, 981, 982, 983, 984, 985, 986, 
987, 988, 989, 990, 991, 992, 993
*ElSet, ELSET=None-SET-8, INSTANCE=Lower_Skin-instance
994, 995, 996, 997, 998, 999, 1000, 1001, 
1002, 1003, 1004, 1005, 1006, 1007, 1008, 1009, 
1010, 1011, 1012, 1013, 1014, 1015, 1016, 1017, 
1018, 1019, 1020, 1021, 1022, 1023, 1024, 1025, 
1026, 1027, 1028, 1029, 1030, 1031, 1032, 1033, 
1034, 1035, 1036, 1037, 1038, 1039, 1040, 1041, 
1042, 1043, 1044, 1045, 1046, 1047, 1048, 1049, 
1050, 1051, 1052, 1053, 1054, 1055, 1056, 1057, 
1058
*ElSet, ELSET=None-ELSET-E4, INSTANCE=Rear_spar-instance
169
*ElSet, ELSET=None-ELSET-E2, INSTANCE=Rear_spar-instance
205, 204, 203, 202, 201, 200, 199, 198, 
197, 196, 195, 194, 193, 192, 191, 190, 
189
*ElSet, ELSET=None-ELSET-E1, INSTANCE=Rear_spar-instance
169, 170, 171
*ElSet, ELSET=None-ELSET-E2-1, INSTANCE=Rear_spar-instance
171
*ElSet, ELSET=None-ELSET-E4-1, INSTANCE=Rear_spar-instance
188, 187, 186, 185, 184, 183, 182, 181, 
180, 179, 178, 177, 176, 175, 174, 173, 
172
*ElSet, ELSET=None-ELSET-E3, INSTANCE=Rear_spar-instance
206
*ElSet, ELSET=None-ELSET-E2-2, INSTANCE=Rear_spar-instance
269, 268, 267, 266, 265, 264, 263, 262, 
261, 260, 259, 258, 257, 256, 255, 254, 
253, 252, 251, 250, 249, 248, 247, 246, 
245, 244, 243, 242, 241, 240, 239, 238, 
237, 236, 235, 234, 233, 232, 231, 230, 
229, 228, 227, 226, 225, 224, 223, 222, 
221, 220, 219, 218, 217, 216, 215, 214, 
213, 212, 211, 210, 209, 208
*ElSet, ELSET=None-ELSET-E2-3, INSTANCE=Rear_spar-instance
207
*ElSet, ELSET=None-ELSET-E4-2, INSTANCE=Rear_spar-instance
269, 268, 267, 266, 265, 264, 263, 262, 
261, 260, 259, 258, 257, 256, 255, 254, 
253, 252, 251, 250, 249, 248, 247, 246, 
245, 244, 243, 242, 241, 240, 239, 238, 
237, 236, 235, 234, 233, 232, 231, 230, 
229, 228, 227, 226, 225, 224, 223, 222, 
221, 220, 219, 218, 217, 216, 215, 214, 
213, 212, 211, 210, 209, 208
*ElSet, ELSET=None-ELSET-E4-3, INSTANCE=Front_spar-instance
177
*ElSet, ELSET=None-ELSET-E2-4, INSTANCE=Front_spar-instance
234, 233, 232, 231, 230, 229, 228, 227, 
226, 225, 224, 223, 222, 221, 220, 219, 
218, 217
*ElSet, ELSET=None-ELSET-E1-1, INSTANCE=Front_spar-instance
177, 178, 179, 180
*ElSet, ELSET=None-ELSET-E2-5, INSTANCE=Front_spar-instance
180
*ElSet, ELSET=None-ELSET-E4-4, INSTANCE=Front_spar-instance
198, 197, 196, 195, 194, 193, 192, 191, 
190, 189, 188, 187, 186, 185, 184, 183, 
182, 181
*ElSet, ELSET=None-ELSET-E3-1, INSTANCE=Front_spar-instance
235
*ElSet, ELSET=None-ELSET-E2-6, INSTANCE=Front_spar-instance
301, 300, 299, 298, 297, 296, 295, 294, 
293, 292, 291, 290, 289, 288, 287, 286, 
285, 284, 283, 282, 281, 280, 279, 278, 
277, 276, 275, 274, 273, 272, 271, 270, 
269, 268, 267, 266, 265, 264, 263, 262, 
261, 260, 259, 258, 257, 256, 255, 254, 
253, 252, 251, 250, 249, 248, 247, 246, 
245, 244, 243, 242, 241, 240, 239, 238
*ElSet, ELSET=None-ELSET-E2-7, INSTANCE=Front_spar-instance
237
*ElSet, ELSET=None-ELSET-E4-5, INSTANCE=Front_spar-instance
301, 300, 299, 298, 297, 296, 295, 294, 
293, 292, 291, 290, 289, 288, 287, 286, 
285, 284, 283, 282, 281, 280, 279, 278, 
277, 276, 275, 274, 273, 272, 271, 270, 
269, 268, 267, 266, 265, 264, 263, 262, 
261, 260, 259, 258, 257, 256, 255, 254, 
253, 252, 251, 250, 249, 248, 247, 246, 
245, 244, 243, 242, 241, 240, 239, 238
*ElSet, ELSET=None-ELSET-E1-2, INSTANCE=Front_spar_centre_section-instance
83, 79, 75, 71, 67, 63, 59, 55, 
51, 47, 43, 39, 35
*ElSet, ELSET=None-ELSET-E3-2, INSTANCE=Front_spar_centre_section-instance
86, 82, 78, 74, 70, 66, 62, 58, 
54, 50, 46, 42, 38
*ElSet, ELSET=None-ELSET-E1-3, INSTANCE=Rear_spar_centre_section-instance
69, 66, 63, 60, 57, 54, 51, 48, 
45, 42, 39, 36, 33
*ElSet, ELSET=None-ELSET-E3-3, INSTANCE=Rear_spar_centre_section-instance
71, 68, 65, 62, 59, 56, 53, 50, 
47, 44, 41, 38, 35
*ElSet, ELSET=None-ELSET-E1-4, INSTANCE=Upper_Skin_centre_section-instance
237, 222, 207, 192, 177, 162, 147, 132, 
117, 102, 87, 72, 57
*ElSet, ELSET=None-ELSET-E3-4, INSTANCE=Upper_Skin_centre_section-instance
251, 236, 221, 206, 191, 176, 161, 146, 
131, 116, 101, 86, 71
*ElSet, ELSET=None-ELSET-E1-5, INSTANCE=Lower_Skin_centre_section-instance
237, 222, 207, 192, 177, 162, 147, 132, 
117, 102, 87, 72, 57
*ElSet, ELSET=None-ELSET-E3-5, INSTANCE=Lower_Skin_centre_section-instance
251, 236, 221, 206, 191, 176, 161, 146, 
131, 116, 101, 86, 71
*ElSet, ELSET=None-SET-9, INSTANCE=Upper_Skin_centre_section-instance
57, 58, 59, 60, 61, 62, 63, 64, 
65, 66, 67, 68, 69, 70, 71, 72, 
73, 74, 75, 76, 77, 78, 79, 80, 
81, 82, 83, 84, 85, 86, 87, 88, 
89, 90, 91, 92, 93, 94, 95, 96, 
97, 98, 99, 100, 101, 102, 103, 104, 
105, 106, 107, 108, 109, 110, 111, 112, 
113, 114, 115, 116, 117, 118, 119, 120, 
121, 122, 123, 124, 125, 126, 127, 128, 
129, 130, 131, 132, 133, 134, 135, 136, 
137, 138, 139, 140, 141, 142, 143, 144, 
145, 146, 147, 148, 149, 150, 151, 152, 
153, 154, 155, 156, 157, 158, 159, 160, 
161, 162, 163, 164, 165, 166, 167, 168, 
169, 170, 171, 172, 173, 174, 175, 176, 
177, 178, 179, 180, 181, 182, 183, 184, 
185, 186, 187, 188, 189, 190, 191, 192, 
193, 194, 195, 196, 197, 198, 199, 200, 
201, 202, 203, 204, 205, 206, 207, 208, 
209, 210, 211, 212, 213, 214, 215, 216, 
** ... 5 like lines cut
*ElSet, ELSET=None-SET-10, INSTANCE=Lower_Skin_centre_section-instance
57, 58, 59, 60, 61, 62, 63, 64, 
65, 66, 67, 68, 69, 70, 71, 72, 
73, 74, 75, 76, 77, 78, 79, 80, 
81, 82, 83, 84, 85, 86, 87, 88, 
89, 90, 91, 92, 93, 94, 95, 96, 
97, 98, 99, 100, 101, 102, 103, 104, 
105, 106, 107, 108, 109, 110, 111, 112, 
113, 114, 115, 116, 117, 118, 119, 120, 
121, 122, 123, 124, 125, 126, 127, 128, 
129, 130, 131, 132, 133, 134, 135, 136, 
137, 138, 139, 140, 141, 142, 143, 144, 
145, 146, 147, 148, 149, 150, 151, 152, 
153, 154, 155, 156, 157, 158, 159, 160, 
161, 162, 163, 164, 165, 166, 167, 168, 
169, 170, 171, 172, 173, 174, 175, 176, 
177, 178, 179, 180, 181, 182, 183, 184, 
185, 186, 187, 188, 189, 190, 191, 192, 
193, 194, 195, 196, 197, 198, 199, 200, 
201, 202, 203, 204, 205, 206, 207, 208, 
209, 210, 211, 212, 213, 214, 215, 216, 
** ... 5 like lines cut
*ElSet, ELSET=None-SET-11, INSTANCE=Front_spar_centre_section-instance
35, 36, 37, 38, 39, 40, 41, 42, 
43, 44, 45, 46, 47, 48, 49, 50, 
51, 52, 53, 54, 55, 56, 57, 58, 
59, 60, 61, 62, 63, 64, 65, 66, 
67, 68, 69, 70, 71, 72, 73, 74, 
75, 76, 77, 78, 79, 80, 81, 82, 
83, 84, 85, 86
*ElSet, ELSET=None-SET-12, INSTANCE=Rear_spar_centre_section-instance
33, 34, 35, 36, 37, 38, 39, 40, 
41, 42, 43, 44, 45, 46, 47, 48, 
49, 50, 51, 52, 53, 54, 55, 56, 
57, 58, 59, 60, 61, 62, 63, 64, 
65, 66, 67, 68, 69, 70, 71
*ElSet, ELSET=None-ELSET-E2-8, INSTANCE=Upper_Skin_centre_section-instance
237, 238, 239, 240, 241, 242, 243, 244, 
245, 246, 247, 248, 249, 250, 251
*ElSet, ELSET=None-ELSET-E2-9, INSTANCE=Lower_Skin_centre_section-instance
237, 238, 239, 240, 241, 242, 243, 244, 
245, 246, 247, 248, 249, 250, 251
*ElSet, ELSET=None-ELSET-E2-10, INSTANCE=Rear_spar_centre_section-instance
69, 70, 71
*ElSet, ELSET=None-ELSET-E2-11, INSTANCE=Front_spar_centre_section-instance
83, 84, 85, 86
*ElSet, ELSET=None-SET-13, INSTANCE=Upper_Skin-instance
368, 369, 370, 371, 372, 373, 374, 375, 
376, 377, 378, 379, 380, 381, 382, 383, 
384, 385, 386, 387, 388, 389, 390, 391, 
392, 393, 394, 395, 396, 397, 398, 399, 
400, 401, 402, 403, 404, 405, 406, 407, 
408, 409, 410, 411, 412, 413, 414, 415, 
416, 417, 418, 419, 420, 421, 422, 423, 
424, 425, 426, 427, 428, 429, 430, 431, 
432, 433, 434, 435, 436, 437, 438, 439, 
440, 441, 442, 443, 444, 445, 446, 447, 
448, 449, 450, 451, 452, 453, 454, 455, 
456, 457, 458, 459, 460, 461, 462, 463, 
464, 465, 466, 467, 468, 469, 470, 471, 
472, 473, 474, 475, 476, 477, 478, 479, 
480, 481, 482, 483, 484, 485, 486, 487, 
488, 489, 490, 491, 492, 493, 494, 495, 
496, 497, 498, 499, 500, 501, 502, 503, 
504, 505, 506, 507, 508, 509, 510, 511, 
512, 513, 514, 515, 516, 517, 518, 519, 
520, 521, 522, 523, 524, 525, 526, 527, 
** ... 6 like lines cut
*ElSet, ELSET=None-SET-14, INSTANCE=Upper_Skin-instance
608, 609, 610, 611, 612, 613, 614, 615, 
616, 617, 618, 619, 620, 621, 622, 623, 
624, 625, 626, 627, 628, 629, 630, 631, 
632, 633, 634, 635, 636, 637, 638, 639, 
640, 641, 642, 643, 644, 645, 646, 647, 
648, 649, 650, 651, 652, 653, 654, 655, 
656, 657, 658, 659, 660, 661, 662, 663, 
664, 665, 666, 667, 668, 669, 670, 671, 
672, 673, 674, 675, 676, 677, 678, 679, 
680, 681, 682, 683, 684, 685, 686, 687, 
688, 689, 690, 691, 692, 693, 694, 695, 
696, 697, 698, 699, 700, 701, 702, 703, 
704, 705, 706, 707, 708, 709, 710, 711, 
712, 713, 714, 715, 716, 717, 718, 719, 
720, 721, 722, 723, 724, 725, 726, 727, 
728, 729, 730, 731, 732, 733, 734, 735, 
736, 737, 738, 739, 740, 741, 742, 743, 
744, 745, 746, 747, 748, 749, 750, 751, 
752, 753, 754, 755, 756, 757, 758, 759, 
760, 761, 762, 763, 764, 765, 766, 767, 
** ... 21 like lines cut
*ElSet, ELSET=None-SET-15, INSTANCE=Upper_Skin-instance
368, 369, 370, 371, 372, 373, 374, 375, 
376, 377, 378, 379, 380, 381, 382, 383, 
384, 385, 386, 387, 388, 389, 390, 391, 
392, 393, 394, 395, 396, 397, 398, 399, 
400, 401, 402, 403, 404, 405, 406, 407, 
408, 409, 410, 411, 412, 413, 414, 415, 
416, 417, 418, 419, 420, 421, 422, 423, 
424, 425, 426, 427, 428, 429, 430, 431, 
432, 433, 434, 435, 436, 437, 438, 439, 
440, 441, 442, 443, 444, 445, 446, 447, 
448, 449, 450, 451, 452, 453, 454, 455, 
456, 457, 458, 459, 460, 461, 462, 463, 
464, 465, 466, 467, 468, 469, 470, 471, 
472, 473, 474, 475, 476, 477, 478, 479, 
480, 481, 482, 483, 484, 485, 486, 487, 
488, 489, 490, 491, 492, 493, 494, 495, 
496, 497, 498, 499, 500, 501, 502, 503, 
504, 505, 506, 507, 508, 509, 510, 511, 
512, 513, 514, 515, 516, 517, 518, 519, 
520, 521, 522, 523, 524, 525, 526, 527, 
** ... 46 like lines cut
*ElSet, ELSET=None-SET-16, INSTANCE=Lower_Skin-instance
608, 609, 610, 611, 612, 613, 614, 615, 
616, 617, 618, 619, 620, 621, 622, 623, 
624, 625, 626, 627, 628, 629, 630, 631, 
632, 633, 634, 635, 636, 637, 638, 639, 
640, 641, 642, 643, 644, 645, 646, 647, 
648, 649, 650, 651, 652, 653, 654, 655, 
656, 657, 658, 659, 660, 661, 662, 663, 
664, 665, 666, 667, 668, 669, 670, 671, 
672, 673, 674, 675, 676, 677, 678, 679, 
680, 681, 682, 683, 684, 685, 686, 687, 
688, 689, 690, 691, 692, 693, 694, 695, 
696, 697, 698, 699, 700, 701, 702, 703, 
704, 705, 706, 707, 708, 709, 710, 711, 
712, 713, 714, 715, 716, 717, 718, 719, 
720, 721, 722, 723, 724, 725, 726, 727, 
728, 729, 730, 731, 732, 733, 734, 735, 
736, 737, 738, 739, 740, 741, 742, 743, 
744, 745, 746, 747, 748, 749, 750, 751, 
752, 753, 754, 755, 756, 757, 758, 759, 
760, 761, 762, 763, 764, 765, 766, 767, 
** ... 46 like lines cut
*ElSet, ELSET=None-SET-17, INSTANCE=Lower_Skin-instance
368, 369, 370, 371, 372, 373, 374, 375, 
376, 377, 378, 379, 380, 381, 382, 383, 
384, 385, 386, 387, 388, 389, 390, 391, 
392, 393, 394, 395, 396, 397, 398, 399, 
400, 401, 402, 403, 404, 405, 406, 407, 
408, 409, 410, 411, 412, 413, 414, 415, 
416, 417, 418, 419, 420, 421, 422, 423, 
424, 425, 426, 427, 428, 429, 430, 431, 
432, 433, 434, 435, 436, 437, 438, 439, 
440, 441, 442, 443, 444, 445, 446, 447, 
448, 449, 450, 451, 452, 453, 454, 455, 
456, 457, 458, 459, 460, 461, 462, 463, 
464, 465, 466, 467, 468, 469, 470, 471, 
472, 473, 474, 475, 476, 477, 478, 479, 
480, 481, 482, 483, 484, 485, 486, 487, 
488, 489, 490, 491, 492, 493, 494, 495, 
496, 497, 498, 499, 500, 501, 502, 503, 
504, 505, 506, 507, 508, 509, 510, 511, 
512, 513, 514, 515, 516, 517, 518, 519, 
520, 521, 522, 523, 524, 525, 526, 527, 
** ... 6 like lines cut
*ElSet, ELSET=None-SET-18, INSTANCE=Upper_stringers-instance
1031, 1032, 1033, 1034, 1035, 1036, 1037, 1038, 
1039, 1040, 1041, 1042, 1043, 1044, 1045, 1046, 
1047, 1048, 1049
*ElSet, ELSET=None-SET-19, INSTANCE=Upper_stringers-instance
1068, 1069, 1070, 1071, 1072, 1073, 1074, 1075, 
1076, 1077, 1078, 1079, 1080, 1081, 1082, 1083, 
1084, 1085, 1086
*ElSet, ELSET=None-SET-20, INSTANCE=Upper_stringers-instance
1105, 1106, 1107, 1108, 1109, 1110, 1111, 1112, 
1113, 1114, 1115, 1116, 1117, 1118, 1119, 1120, 
1121, 1122, 1123, 1124
*ElSet, ELSET=None-SET-21, INSTANCE=Upper_stringers-instance
1144, 1145, 1146, 1147, 1148, 1149, 1150, 1151, 
1152, 1153, 1154, 1155, 1156, 1157, 1158, 1159, 
1160, 1161, 1162, 1163
*ElSet, ELSET=None-SET-22, INSTANCE=Upper_stringers-instance
1183, 1184, 1185, 1186, 1187, 1188, 1189, 1190, 
1191, 1192, 1193, 1194, 1195, 1196, 1197, 1198, 
1199, 1200, 1201, 1202, 1203, 1204, 1205, 1206, 
1207, 1208, 1209, 1210, 1211, 1212, 1213, 1214, 
1215, 1216, 1217, 1218, 1219, 1220, 1221, 1222, 
1223, 1224, 1225, 1226, 1227, 1228, 1229, 1230, 
1231, 1232, 1233, 1234, 1235, 1236, 1237, 1238, 
1239, 1240, 1241, 1242, 1243, 1244, 1245, 1246
*ElSet, ELSET=None-SET-23, INSTANCE=Upper_stringers-instance
1310, 1311, 1312, 1313, 1314, 1315, 1316, 1317, 
1318, 1319, 1320, 1321, 1322, 1323, 1324, 1325, 
1326, 1327, 1328, 1329, 1330, 1331, 1332, 1333, 
1334, 1335, 1336, 1337, 1338, 1339, 1340, 1341, 
1342, 1343, 1344, 1345, 1346, 1347, 1348, 1349, 
1350, 1351, 1352, 1353, 1354, 1355, 1356, 1357, 
1358, 1359, 1360, 1361, 1362, 1363, 1364, 1365, 
1366, 1367, 1368, 1369, 1370, 1371, 1372, 1373, 
1374
*ElSet, ELSET=None-SET-24, INSTANCE=Upper_stringers-instance
1439, 1440, 1441, 1442, 1443, 1444, 1445, 1446, 
1447, 1448, 1449, 1450, 1451, 1452, 1453, 1454, 
1455, 1456, 1457, 1458, 1459, 1460, 1461, 1462, 
1463, 1464, 1465, 1466, 1467, 1468, 1469, 1470, 
1471, 1472, 1473, 1474, 1475, 1476, 1477, 1478, 
1479, 1480, 1481, 1482, 1483, 1484, 1485, 1486, 
1487, 1488, 1489, 1490, 1491, 1492, 1493, 1494, 
1495, 1496, 1497, 1498, 1499, 1500, 1501, 1502, 
1503
*ElSet, ELSET=None-SET-25, INSTANCE=Upper_stringers-instance
1568, 1569, 1570, 1571, 1572, 1573, 1574, 1575, 
1576, 1577, 1578, 1579, 1580, 1581, 1582, 1583, 
1584, 1585, 1586, 1587, 1588, 1589, 1590, 1591, 
1592, 1593, 1594, 1595, 1596, 1597, 1598, 1599, 
1600, 1601, 1602, 1603, 1604, 1605, 1606, 1607, 
1608, 1609, 1610, 1611, 1612, 1613, 1614, 1615, 
1616, 1617, 1618, 1619, 1620, 1621, 1622, 1623, 
1624, 1625, 1626, 1627, 1628, 1629, 1630, 1631, 
1632, 1633
*ElSet, ELSET=None-SET-26, INSTANCE=Lower_stringers-instance
1031, 1032, 1033, 1034, 1035, 1036, 1037, 1038, 
1039, 1040, 1041, 1042, 1043, 1044, 1045, 1046, 
1047, 1048, 1049
*ElSet, ELSET=None-SET-27, INSTANCE=Lower_stringers-instance
1068, 1069, 1070, 1071, 1072, 1073, 1074, 1075, 
1076, 1077, 1078, 1079, 1080, 1081, 1082, 1083, 
1084, 1085, 1086
*ElSet, ELSET=None-SET-28, INSTANCE=Lower_stringers-instance
1105, 1106, 1107, 1108, 1109, 1110, 1111, 1112, 
1113, 1114, 1115, 1116, 1117, 1118, 1119, 1120, 
1121, 1122, 1123, 1124
*ElSet, ELSET=None-SET-29, INSTANCE=Lower_stringers-instance
1144, 1145, 1146, 1147, 1148, 1149, 1150, 1151, 
1152, 1153, 1154, 1155, 1156, 1157, 1158, 1159, 
1160, 1161, 1162, 1163
*ElSet, ELSET=None-SET-30, INSTANCE=Lower_stringers-instance
1183, 1184, 1185, 1186, 1187, 1188, 1189, 1190, 
1191, 1192, 1193, 1194, 1195, 1196, 1197, 1198, 
1199, 1200, 1201, 1202, 1203, 1204, 1205, 1206, 
1207, 1208, 1209, 1210, 1211, 1212, 1213, 1214, 
1215, 1216, 1217, 1218, 1219, 1220, 1221, 1222, 
1223, 1224, 1225, 1226, 1227, 1228, 1229, 1230, 
1231, 1232, 1233, 1234, 1235, 1236, 1237, 1238, 
1239, 1240, 1241, 1242, 1243, 1244, 1245, 1246
*ElSet, ELSET=None-SET-31, INSTANCE=Lower_stringers-instance
1310, 1311, 1312, 1313, 1314, 1315, 1316, 1317, 
1318, 1319, 1320, 1321, 1322, 1323, 1324, 1325, 
1326, 1327, 1328, 1329, 1330, 1331, 1332, 1333, 
1334, 1335, 1336, 1337, 1338, 1339, 1340, 1341, 
1342, 1343, 1344, 1345, 1346, 1347, 1348, 1349, 
1350, 1351, 1352, 1353, 1354, 1355, 1356, 1357, 
1358, 1359, 1360, 1361, 1362, 1363, 1364, 1365, 
1366, 1367, 1368, 1369, 1370, 1371, 1372, 1373, 
1374
*ElSet, ELSET=None-SET-32, INSTANCE=Lower_stringers-instance
1439, 1440, 1441, 1442, 1443, 1444, 1445, 1446, 
1447, 1448, 1449, 1450, 1451, 1452, 1453, 1454, 
1455, 1456, 1457, 1458, 1459, 1460, 1461, 1462, 
1463, 1464, 1465, 1466, 1467, 1468, 1469, 1470, 
1471, 1472, 1473, 1474, 1475, 1476, 1477, 1478, 
1479, 1480, 1481, 1482, 1483, 1484, 1485, 1486, 
1487, 1488, 1489, 1490, 1491, 1492, 1493, 1494, 
1495, 1496, 1497, 1498, 1499, 1500, 1501, 1502, 
1503
*ElSet, ELSET=None-SET-33, INSTANCE=Lower_stringers-instance
1568, 1569, 1570, 1571, 1572, 1573, 1574, 1575, 
1576, 1577, 1578, 1579, 1580, 1581, 1582, 1583, 
1584, 1585, 1586, 1587, 1588, 1589, 1590, 1591, 
1592, 1593, 1594, 1595, 1596, 1597, 1598, 1599, 
1600, 1601, 1602, 1603, 1604, 1605, 1606, 1607, 
1608, 1609, 1610, 1611, 1612, 1613, 1614, 1615, 
1616, 1617, 1618, 1619, 1620, 1621, 1622, 1623, 
1624, 1625, 1626, 1627, 1628, 1629, 1630, 1631, 
1632, 1633
*ElSet, ELSET=None-SET-34, INSTANCE=Upper_stringers_centre_section-instance
173, 174, 175, 176, 177, 178, 179, 180, 
181, 182, 183, 184, 185
*ElSet, ELSET=None-SET-35, INSTANCE=Upper_stringers_centre_section-instance
199, 200, 201, 202, 203, 204, 205, 206, 
207, 208, 209, 210, 211
*ElSet, ELSET=None-SET-36, INSTANCE=Upper_stringers_centre_section-instance
225, 226, 227, 228, 229, 230, 231, 232, 
233, 234, 235, 236, 237
*ElSet, ELSET=None-SET-37, INSTANCE=Upper_stringers_centre_section-instance
251, 252, 253, 254, 255, 256, 257, 258, 
259, 260, 261, 262, 263
*ElSet, ELSET=None-SET-38, INSTANCE=Lower_stringers_centre_section-instance
173, 174, 175, 176, 177, 178, 179, 180, 
181, 182, 183, 184, 185
*ElSet, ELSET=None-SET-39, INSTANCE=Lower_stringers_centre_section-instance
199, 200, 201, 202, 203, 204, 205, 206, 
207, 208, 209, 210, 211
*ElSet, ELSET=None-SET-40, INSTANCE=Lower_stringers_centre_section-instance
225, 226, 227, 228, 229, 230, 231, 232, 
233, 234, 235, 236, 237
*ElSet, ELSET=None-SET-41, INSTANCE=Lower_stringers_centre_section-instance
251, 252, 253, 254, 255, 256, 257, 258, 
259, 260, 261, 262, 263
*ElSet, ELSET=None-ELSET-E2-12, INSTANCE=Ribs_centre_section-instance
189
*ElSet, ELSET=None-ELSET-E4-6, INSTANCE=Ribs_centre_section-instance
203, 202, 201, 200, 199, 198, 197, 196, 
195, 194, 193, 192, 191, 190
*ElSet, ELSET=None-ELSET-E4-7, INSTANCE=Ribs_centre_section-instance
186
*ElSet, ELSET=None-ELSET-E2-13, INSTANCE=Ribs_centre_section-instance
231, 230, 229, 228, 227, 226, 225, 224, 
223, 222, 221, 220, 219, 218
*ElSet, ELSET=None-ELSET-E1-6, INSTANCE=Ribs_centre_section-instance
190, 204, 218
*ElSet, ELSET=None-ELSET-E1-7, INSTANCE=Ribs_centre_section-instance
189, 188, 187, 186
*ElSet, ELSET=None-ELSET-E2-14, INSTANCE=Ribs_centre_section-instance
264, 265, 266, 267, 268, 269, 270, 271, 
272, 273, 274, 275, 276, 277
*ElSet, ELSET=None-ELSET-E4-8, INSTANCE=Ribs_centre_section-instance
232
*ElSet, ELSET=None-ELSET-E4-9, INSTANCE=Ribs_centre_section-instance
236, 237, 238, 239, 240, 241, 242, 243, 
244, 245, 246, 247, 248, 249
*ElSet, ELSET=None-ELSET-E2-15, INSTANCE=Ribs_centre_section-instance
235
*ElSet, ELSET=None-ELSET-E1-8, INSTANCE=Ribs_centre_section-instance
235, 234, 233, 232
*ElSet, ELSET=None-ELSET-E1-9, INSTANCE=Ribs_centre_section-instance
236, 250, 264
*ElSet, ELSET=None-ELSET-E2-16, INSTANCE=Ribs_centre_section-instance
310, 311, 312, 313, 314, 315, 316, 317, 
318, 319, 320, 321, 322, 323
*ElSet, ELSET=None-ELSET-E4-10, INSTANCE=Ribs_centre_section-instance
278
*ElSet, ELSET=None-ELSET-E4-11, INSTANCE=Ribs_centre_section-instance
282, 283, 284, 285, 286, 287, 288, 289, 
290, 291, 292, 293, 294, 295
*ElSet, ELSET=None-ELSET-E2-17, INSTANCE=Ribs_centre_section-instance
281
*ElSet, ELSET=None-ELSET-E1-10, INSTANCE=Ribs_centre_section-instance
281, 280, 279, 278
*ElSet, ELSET=None-ELSET-E1-11, INSTANCE=Ribs_centre_section-instance
282, 296, 310
*ElSet, ELSET=None-ELSET-E2-18, INSTANCE=Ribs_centre_section-instance
356, 357, 358, 359, 360, 361, 362, 363, 
364, 365, 366, 367, 368, 369
*ElSet, ELSET=None-ELSET-E4-12, INSTANCE=Ribs_centre_section-instance
324
*ElSet, ELSET=None-ELSET-E4-13, INSTANCE=Ribs_centre_section-instance
328, 329, 330, 331, 332, 333, 334, 335, 
336, 337, 338, 339, 340, 341
*ElSet, ELSET=None-ELSET-E2-19, INSTANCE=Ribs_centre_section-instance
327
*ElSet, ELSET=None-ELSET-E1-12, INSTANCE=Ribs_centre_section-instance
327, 326, 325, 324
*ElSet, ELSET=None-ELSET-E1-13, INSTANCE=Ribs_centre_section-instance
328, 342, 356
*ElSet, ELSET=None-ELSET-E2-20, INSTANCE=Ribs_centre_section-instance
402, 403, 404, 405, 406, 407, 408, 409, 
410, 411, 412, 413, 414, 415
*ElSet, ELSET=None-ELSET-E4-14, INSTANCE=Ribs_centre_section-instance
370
*ElSet, ELSET=None-ELSET-E4-15, INSTANCE=Ribs_centre_section-instance
374, 375, 376, 377, 378, 379, 380, 381, 
382, 383, 384, 385, 386, 387
*ElSet, ELSET=None-ELSET-E2-21, INSTANCE=Ribs_centre_section-instance
373
*ElSet, ELSET=None-ELSET-E1-14, INSTANCE=Ribs_centre_section-instance
373, 372, 371, 370
*ElSet, ELSET=None-ELSET-E1-15, INSTANCE=Ribs_centre_section-instance
374, 388, 402
*NSet, NSET=set, INSTANCE=Upper_Skin-instance
1, 31, 32, 33, 34, 35, 36, 37, 
38, 39, 40, 41, 42, 43, 44, 3
*NSet, NSET=set-1, INSTANCE=Upper_Skin_centre_section-instance
2, 43, 44, 45, 46, 47, 48, 49, 
50, 51, 52, 53, 54, 55, 56, 4
*NSet, NSET=set-2, INSTANCE=Lower_Skin_centre_section-instance
2, 43, 44, 45, 46, 47, 48, 49, 
50, 51, 52, 53, 54, 55, 56, 4
*NSet, NSET=set-3, INSTANCE=Front_spar_centre_section-instance
2, 32, 33, 34, 4
*NSet, NSET=set-4, INSTANCE=Rear_spar_centre_section-instance
2, 31, 32, 4
*NSet, NSET=loadpoints, INSTANCE=Upper_Skin-instance
31, 1, 32, 33, 34, 35, 36, 37, 
38, 39, 40, 41, 42, 43, 44, 3, 
13, 383, 363, 388, 387, 386, 385, 384, 
382, 381, 380, 45
*NSet, NSET=loadpoints-1, INSTANCE=Upper_Skin-instance
14, 392, 389, 391, 364, 46, 390, 393, 
394, 395, 396, 397
*NSet, NSET=loadpoints-2, INSTANCE=Upper_Skin-instance
15, 365, 398, 399, 401, 406, 47, 400, 
402, 403, 404, 405
*NSet, NSET=loadpoints-3, INSTANCE=Upper_Skin-instance
16, 366, 48, 407, 409, 410, 411, 412, 
413, 414, 415, 408
*NSet, NSET=loadpoints-4, INSTANCE=Upper_Skin-instance
17, 420, 421, 422, 424, 367, 49, 416, 
417, 418, 419, 423
*NSet, NSET=loadpoints-5, INSTANCE=Upper_Skin-instance
18, 368, 425, 426, 427, 429, 431, 432, 
433, 50, 428, 430
*NSet, NSET=loadpoints-6, INSTANCE=Upper_Skin-instance
19, 369, 434, 436, 437, 438, 440, 442, 
51, 435, 439, 441
*NSet, NSET=loadpoints-7, INSTANCE=Upper_Skin-instance
20, 370, 443, 444, 445, 448, 449, 450, 
451, 52, 446, 447
*NSet, NSET=loadpoints-8, INSTANCE=Upper_Skin-instance
21, 371, 454, 455, 456, 457, 458, 459, 
460, 53, 452, 453
*NSet, NSET=loadpoints-9, INSTANCE=Upper_Skin-instance
22, 463, 372, 462, 465, 466, 467, 468, 
469, 54, 461, 464
*NSet, NSET=loadpoints-10, INSTANCE=Upper_Skin-instance
23, 470, 472, 477, 478, 373, 55, 471, 
473, 474, 475, 476, 24
*NSet, NSET=loadpoints-11, INSTANCE=Upper_Skin-instance
487, 374, 481, 482, 484, 485, 486, 479, 
480, 483, 56, 25
*NSet, NSET=loadpoints-12, INSTANCE=Upper_Skin-instance
375, 496, 489, 490, 492, 493, 494, 495, 
57, 488, 491, 26
*NSet, NSET=loadpoints-13, INSTANCE=Upper_Skin-instance
376, 498, 504, 505, 499, 500, 501, 502, 
503, 58, 497, 27
*NSet, NSET=loadpoints-14, INSTANCE=Upper_Skin-instance
507, 509, 377, 508, 510, 511, 512, 513, 
514, 59, 506, 28
*NSet, NSET=loadpoints-15, INSTANCE=Upper_Skin-instance
522, 378, 521, 523, 518, 519, 517, 520, 
60, 516, 515, 29
*NSet, NSET=loadpoints-16, INSTANCE=Upper_Skin-instance
379, 532, 527, 531, 526, 61, 528, 525, 
529, 530, 524, 30
*NSet, NSET=loadpoints-17, INSTANCE=Upper_Skin-instance
2, 62, 4, 71, 70, 69, 68, 67, 
66, 65, 64, 63
*NSet, NSET=loadpoints-18, INSTANCE=Upper_Skin-instance
107, 533, 597, 596, 171, 595
*NSet, NSET=loadpoints-19, INSTANCE=Upper_Skin-instance
108, 534, 172, 598, 599, 600, 109
*NSet, NSET=loadpoints-20, INSTANCE=Upper_Skin-instance
603, 535, 173, 601, 602, 110
*NSet, NSET=loadpoints-21, INSTANCE=Upper_Skin-instance
536, 174, 604, 605, 606, 111, 537, 175, 
607, 608, 609
*NSet, NSET=loadpoints-22, INSTANCE=Upper_Skin-instance
112, 538, 176, 610, 611, 612
*NSet, NSET=loadpoints-23, INSTANCE=Upper_Skin-instance
113, 539, 177, 613, 614, 615
*NSet, NSET=loadpoints-24, INSTANCE=Upper_Skin-instance
114, 540, 178, 616, 617, 618
*NSet, NSET=loadpoints-25, INSTANCE=Upper_Skin-instance
115, 541, 179, 620, 621, 619
*NSet, NSET=loadpoints-26, INSTANCE=Upper_Skin-instance
116, 542, 180, 622, 624, 623
*NSet, NSET=loadpoints-27, INSTANCE=Upper_Skin-instance
117, 626, 627, 543, 181, 625
*NSet, NSET=loadpoints-28, INSTANCE=Upper_Skin-instance
118, 544, 182, 629, 630, 628
*NSet, NSET=loadpoints-29, INSTANCE=Upper_Skin-instance
119, 545, 183, 632, 631, 633, 120
*NSet, NSET=loadpoints-30, INSTANCE=Upper_Skin-instance
546, 184, 635, 634, 636, 121
*NSet, NSET=loadpoints-31, INSTANCE=Upper_Skin-instance
547, 185, 637, 638, 639, 122
*NSet, NSET=loadpoints-32, INSTANCE=Upper_Skin-instance
548, 186, 640, 641, 642, 123
*NSet, NSET=loadpoints-33, INSTANCE=Upper_Skin-instance
549, 187, 643, 645, 644, 124
*NSet, NSET=loadpoints-34, INSTANCE=Upper_Skin-instance
646, 550, 188, 647, 648, 125, 650, 649, 
651, 551, 189
*NSet, NSET=loadpoints-35, INSTANCE=Upper_Skin-instance
126, 552, 190, 652, 653, 654
*NSet, NSET=loadpoints-36, INSTANCE=Upper_Skin-instance
127, 553, 191, 655, 657, 656
*NSet, NSET=loadpoints-37, INSTANCE=Upper_Skin-instance
128, 658, 659, 660, 554, 192
*NSet, NSET=loadpoints-38, INSTANCE=Upper_Skin-instance
129, 555, 193, 661, 662, 663, 130
*NSet, NSET=loadpoints-39, INSTANCE=Upper_Skin-instance
556, 194, 665, 666, 664, 131
*NSet, NSET=loadpoints-40, INSTANCE=Upper_Skin-instance
557, 195, 668, 669, 667, 132
*NSet, NSET=loadpoints-41, INSTANCE=Upper_Skin-instance
671, 672, 558, 196, 670, 133
*NSet, NSET=loadpoints-42, INSTANCE=Upper_Skin-instance
673, 675, 559, 197, 674, 134
*NSet, NSET=loadpoints-43, INSTANCE=Upper_Skin-instance
560, 198, 676, 677, 678, 135
*NSet, NSET=loadpoints-44, INSTANCE=Upper_Skin-instance
561, 199, 680, 681, 679, 136
*NSet, NSET=loadpoints-45, INSTANCE=Upper_Skin-instance
562, 200, 683, 682, 684, 137
*NSet, NSET=loadpoints-46, INSTANCE=Upper_Skin-instance
563, 686, 201, 685, 687, 138
*NSet, NSET=loadpoints-47, INSTANCE=Upper_Skin-instance
139, 690, 564, 202, 688, 689, 140
*NSet, NSET=loadpoints-48, INSTANCE=Upper_Skin-instance
203, 692, 565, 693, 691, 141, 566, 204, 
694, 695, 696
*NSet, NSET=loadpoints-49, INSTANCE=Upper_Skin-instance
142, 205, 698, 567, 699, 697
*NSet, NSET=loadpoints-50, INSTANCE=Upper_Skin-instance
143, 206, 700, 568, 701, 702
*NSet, NSET=loadpoints-51, INSTANCE=Upper_Skin-instance
144, 207, 705, 569, 703, 704
*NSet, NSET=loadpoints-52, INSTANCE=Upper_Skin-instance
145, 208, 706, 707, 708, 570
*NSet, NSET=loadpoints-53, INSTANCE=Upper_Skin-instance
146, 209, 709, 710, 711, 571
*NSet, NSET=loadpoints-54, INSTANCE=Upper_Skin-instance
147, 210, 713, 712, 572, 714
*NSet, NSET=loadpoints-55, INSTANCE=Upper_Skin-instance
148, 211, 715, 716, 717, 573
*NSet, NSET=loadpoints-56, INSTANCE=Upper_Skin-instance
149, 212, 718, 719, 720, 574
*NSet, NSET=loadpoints-57, INSTANCE=Upper_Skin-instance
150, 213, 721, 722, 723, 575, 151
*NSet, NSET=loadpoints-58, INSTANCE=Upper_Skin-instance
214, 724, 725, 726, 576, 152
*NSet, NSET=loadpoints-59, INSTANCE=Upper_Skin-instance
215, 727, 728, 577, 729, 153
*NSet, NSET=loadpoints-60, INSTANCE=Upper_Skin-instance
216, 731, 730, 732, 578, 154
*NSet, NSET=loadpoints-61, INSTANCE=Upper_Skin-instance
217, 733, 734, 735, 579, 155
*NSet, NSET=loadpoints-62, INSTANCE=Upper_Skin-instance
218, 736, 737, 738, 580, 156, 219, 739, 
740, 741, 581
*NSet, NSET=loadpoints-63, INSTANCE=Upper_Skin-instance
157, 220, 742, 743, 582, 744
*NSet, NSET=loadpoints-64, INSTANCE=Upper_Skin-instance
158, 221, 745, 746, 747, 583
*NSet, NSET=loadpoints-65, INSTANCE=Upper_Skin-instance
159, 222, 748, 749, 750, 584
*NSet, NSET=loadpoints-66, INSTANCE=Upper_Skin-instance
160, 223, 751, 752, 753, 585, 161
*NSet, NSET=loadpoints-67, INSTANCE=Upper_Skin-instance
754, 224, 755, 756, 586, 162
*NSet, NSET=loadpoints-68, INSTANCE=Upper_Skin-instance
225, 757, 758, 587, 759, 163
*NSet, NSET=loadpoints-69, INSTANCE=Upper_Skin-instance
226, 760, 761, 762, 588, 164
*NSet, NSET=loadpoints-70, INSTANCE=Upper_Skin-instance
227, 764, 763, 765, 589, 165
*NSet, NSET=loadpoints-71, INSTANCE=Upper_Skin-instance
228, 766, 767, 768, 590, 166
*NSet, NSET=loadpoints-72, INSTANCE=Upper_Skin-instance
229, 769, 770, 771, 591, 167
*NSet, NSET=loadpoints-73, INSTANCE=Upper_Skin-instance
230, 772, 773, 774, 592, 168
*NSet, NSET=loadpoints-74, INSTANCE=Upper_Skin-instance
231, 775, 776, 777, 593, 169
*NSet, NSET=loadpoints-75, INSTANCE=Upper_Skin-instance
232, 778, 779, 780, 594, 170, 9, 233, 
10, 236, 235, 234
*NSet, NSET=engine_0_mass, INSTANCE=Lower_Skin-instance
169, 597, 658, 719, 780, 235, 168, 596, 
657, 718, 779, 234
*Surface, TYPE=ELEMENT, NAME=surface
None-SET, SPOS
*Surface, TYPE=ELEMENT, NAME=surface-1
None-SET-1, SPOS
*Surface, TYPE=ELEMENT, NAME=surface-2
None-SET-2, SPOS
*Surface, TYPE=ELEMENT, NAME=surface-3
None-SET-3, SPOS
*Surface, TYPE=ELEMENT, NAME=surface-4
None-SET-4, SPOS
*Surface, TYPE=ELEMENT, NAME=surface-5
None-SET-5, SPOS
*Surface, TYPE=ELEMENT, NAME=surface-6
None-SET-6, SPOS
*Surface, TYPE=ELEMENT, NAME=surface-7
None-SET-7, SPOS
*Surface, TYPE=ELEMENT, NAME=surface-8
None-SET-8, SPOS
*Surface, TYPE=ELEMENT, NAME=surface-9
None-ELSET-E4, E4
None-ELSET-E2, E2
*Surface, TYPE=ELEMENT, NAME=surface-10
None-ELSET-E1, E1
*Surface, TYPE=ELEMENT, NAME=surface-11
None-ELSET-E2-1, E2
None-ELSET-E4-1, E4
*Surface, TYPE=ELEMENT, NAME=surface-12
None-ELSET-E3, E3
None-ELSET-E2-2, E2
*Surface, TYPE=ELEMENT, NAME=surface-13
None-ELSET-E2-3, E2
None-ELSET-E4-2, E4
*Surface, TYPE=ELEMENT, NAME=surface-14
None-ELSET-E4-3, E4
None-ELSET-E2-4, E2
*Surface, TYPE=ELEMENT, NAME=surface-15
None-ELSET-E1-1, E1
*Surface, TYPE=ELEMENT, NAME=surface-16
None-ELSET-E2-5, E2
None-ELSET-E4-4, E4
*Surface, TYPE=ELEMENT, NAME=surface-17
None-ELSET-E3-1, E3
None-ELSET-E2-6, E2
*Surface, TYPE=ELEMENT, NAME=surface-18
None-ELSET-E2-7, E2
None-ELSET-E4-5, E4
*Surface, TYPE=ELEMENT, NAME=surface-19
None-ELSET-E1-2, E1
*Surface, TYPE=ELEMENT, NAME=surface-20
None-ELSET-E3-2, E3
*Surface, TYPE=ELEMENT, NAME=surface-21
None-ELSET-E1-3, E1
*Surface, TYPE=ELEMENT, NAME=surface-22
None-ELSET-E3-3, E3
*Surface, TYPE=ELEMENT, NAME=surface-23
None-ELSET-E1-4, E1
*Surface, TYPE=ELEMENT, NAME=surface-24
None-ELSET-E3-4, E3
*Surface, TYPE=ELEMENT, NAME=surface-25
None-ELSET-E1-5, E1
*Surface, TYPE=ELEMENT, NAME=surface-26
None-ELSET-E3-5, E3
*Surface, TYPE=ELEMENT, NAME=surface-27
None-SET-9, SPOS
*Surface, TYPE=ELEMENT, NAME=surface-28
None-SET-10, SPOS
*Surface, TYPE=ELEMENT, NAME=surface-29
None-SET-11, SPOS
*Surface, TYPE=ELEMENT, NAME=surface-30
None-SET-12, SPOS
*Surface, TYPE=ELEMENT, NAME=surface-31
None-ELSET-E2-8, E2
*Surface, TYPE=ELEMENT, NAME=surface-32
None-ELSET-E2-9, E2
*Surface, TYPE=ELEMENT, NAME=surface-33
None-ELSET-E2-10, E2
*Surface, TYPE=ELEMENT, NAME=surface-34
None-ELSET-E2-11, E2
*Surface, TYPE=ELEMENT, NAME=surface-35
None-SET-13, SPOS
*Surface, TYPE=ELEMENT, NAME=surface-36
None-SET-14, SPOS
*Surface, TYPE=ELEMENT, NAME=surface-37
None-SET-15, SPOS
*Surface, TYPE=ELEMENT, NAME=surface-38
None-SET-16, SPOS
*Surface, TYPE=ELEMENT, NAME=surface-39
None-SET-17, SPOS
*Surface, TYPE=ELEMENT, NAME=surface-40
None-SET-18, 
*Surface, TYPE=ELEMENT, NAME=surface-41
None-SET-19, 
*Surface, TYPE=ELEMENT, NAME=surface-42
None-SET-20, 
*Surface, TYPE=ELEMENT, NAME=surface-43
None-SET-21, 
*Surface, TYPE=ELEMENT, NAME=surface-44
None-SET-22, 
*Surface, TYPE=ELEMENT, NAME=surface-45
None-SET-23, 
*Surface, TYPE=ELEMENT, NAME=surface-46
None-SET-24, 
*Surface, TYPE=ELEMENT, NAME=surface-47
None-SET-25, 
*Surface, TYPE=ELEMENT, NAME=surface-48
None-SET-26, 
*Surface, TYPE=ELEMENT, NAME=surface-49
None-SET-27, 
*Surface, TYPE=ELEMENT, NAME=surface-50
None-SET-28, 
*Surface, TYPE=ELEMENT, NAME=surface-51
None-SET-29, 
*Surface, TYPE=ELEMENT, NAME=surface-52
None-SET-30, 
*Surface, TYPE=ELEMENT, NAME=surface-53
None-SET-31, 
*Surface, TYPE=ELEMENT, NAME=surface-54
None-SET-32, 
*Surface, TYPE=ELEMENT, NAME=surface-55
None-SET-33, 
*Surface, TYPE=ELEMENT, NAME=surface-56
None-SET-34, 
*Surface, TYPE=ELEMENT, NAME=surface-57
None-SET-35, 
*Surface, TYPE=ELEMENT, NAME=surface-58
None-SET-36, 
*Surface, TYPE=ELEMENT, NAME=surface-59
None-SET-37, 
** ... 9 like lines cut
None-ELSET-E2-12, E2
None-ELSET-E4-6, E4
*Surface, TYPE=ELEMENT, NAME=surface-65
None-ELSET-E4-7, E4
None-ELSET-E2-13, E2
*Surface, TYPE=ELEMENT, NAME=surface-66
None-ELSET-E1-6, E1
*Surface, TYPE=ELEMENT, NAME=surface-67
None-ELSET-E1-7, E1
*Surface, TYPE=ELEMENT, NAME=surface-68
None-ELSET-E2-14, E2
None-ELSET-E4-8, E4
*Surface, TYPE=ELEMENT, NAME=surface-69
None-ELSET-E4-9, E4
None-ELSET-E2-15, E2
*Surface, TYPE=ELEMENT, NAME=surface-70
None-ELSET-E1-8, E1
*Surface, TYPE=ELEMENT, NAME=surface-71
None-ELSET-E1-9, E1
*Surface, TYPE=ELEMENT, NAME=surface-72
None-ELSET-E2-16, E2
None-ELSET-E4-10, E4
*Surface, TYPE=ELEMENT, NAME=surface-73
None-ELSET-E4-11, E4
None-ELSET-E2-17, E2
*Surface, TYPE=ELEMENT, NAME=surface-74
None-ELSET-E1-10, E1
*Surface, TYPE=ELEMENT, NAME=surface-75
None-ELSET-E1-11, E1
*Surface, TYPE=ELEMENT, NAME=surface-76
None-ELSET-E2-18, E2
None-ELSET-E4-12, E4
*Surface, TYPE=ELEMENT, NAME=surface-77
None-ELSET-E4-13, E4
None-ELSET-E2-19, E2
*Surface, TYPE=ELEMENT, NAME=surface-78
None-ELSET-E1-12, E1
*Surface, TYPE=ELEMENT, NAME=surface-79
None-ELSET-E1-13, E1
*Surface, TYPE=ELEMENT, NAME=surface-80
None-ELSET-E2-20, E2
None-ELSET-E4-14, E4
*Surface, TYPE=ELEMENT, NAME=surface-81
None-ELSET-E4-15, E4
None-ELSET-E2-21, E2
*Surface, TYPE=ELEMENT, NAME=surface-82
None-ELSET-E1-14, E1
*Surface, TYPE=ELEMENT, NAME=surface-83
None-ELSET-E1-15, E1
*Tie, NAME=tie, TYPE=Surface to Surface
surface-9, surface
*Tie, NAME=tie-1, TYPE=Surface to Surface
surface-12, surface-3
*Tie, NAME=tie-2, TYPE=Surface to Surface
surface-14, surface-1
*Tie, NAME=tie-3, TYPE=Surface to Surface
surface-17, surface-4
*Tie, NAME=tie-4, TYPE=Surface to Surface
surface-11, surface-5
*Tie, NAME=tie-5, TYPE=Surface to Surface
surface-13, surface-7
*Tie, NAME=tie-6, TYPE=Surface to Surface
surface-16, surface-6
*Tie, NAME=tie-7, TYPE=Surface to Surface
surface-18, surface-8
*Tie, NAME=tie-8, TYPE=Surface to Surface
surface-19, surface-23
*Tie, NAME=tie-9, TYPE=Surface to Surface
surface-20, surface-25
*Tie, NAME=tie-10, TYPE=Surface to Surface
surface-21, surface-24
*Tie, NAME=tie-11, TYPE=Surface to Surface
surface-22, surface-26
*Tie, NAME=tie-12, TYPE=Surface to Surface
surface-31, surface-35
*Tie, NAME=tie-13, TYPE=Surface to Surface
surface-32, surface-39
*Tie, NAME=tie-14, TYPE=Surface to Surface
surface-37, surface-40
*Tie, NAME=tie-15, TYPE=Surface to Surface
surface-37, surface-41
*Tie, NAME=tie-16, TYPE=Surface to Surface
surface-37, surface-42
*Tie, NAME=tie-17, TYPE=Surface to Surface
surface-37, surface-43
*Tie, NAME=tie-18, TYPE=Surface to Surface
surface-37, surface-44
*Tie, NAME=tie-19, TYPE=Surface to Surface
surface-37, surface-45
*Tie, NAME=tie-20, TYPE=Surface to Surface
surface-37, surface-46
** ... 18 like lines cut
*End Assembly
** 
** MATERIALS
** 
*Material, NAME=user-chosen_material
*Density
2810
*Elastic
72000000000.0, 0.33
** 
** STEPS
** 
** Name: boundary-condition Type: Displacement/Rotation
*Boundary
set, 1, 1
set, 2, 2
set, 3, 3
set, 4, 4
set, 5, 5
set, 6, 6
** Name: boundary-condition-1 Type: Displacement/Rotation
*Boundary
set-1, 1, 1
set-1, 2, 2
set-1, 3, 3
set-1, 4, 4
set-1, 5, 5
set-1, 6, 6
** Name: boundary-condition-2 Type: Displacement/Rotation
*Boundary
set-2, 1, 1
set-2, 2, 2
set-2, 3, 3
set-2, 4, 4
set-2, 5, 5
set-2, 6, 6
** Name: boundary-condition-3 Type: Displacement/Rotation
*Boundary
set-3, 1, 1
set-3, 2, 2
set-3, 3, 3
set-3, 4, 4
set-3, 5, 5
set-3, 6, 6
** Name: boundary-condition-4 Type: Displacement/Rotation
*Boundary
set-4, 1, 1
set-4, 2, 2
set-4, 3, 3
set-4, 4, 4
set-4, 5, 5
set-4, 6, 6
** 
** STEP: analysis1
** 
*Step, NAME=analysis1, NLGEOM=NO
*Static
0.01, 1.0, 1e-15, 0.1
*CLoad
loadpoints, 3, 3185.0649350649346
*CLoad
loadpoints-1, 3, 3143.1561859193434
*CLoad
loadpoints-2, 3, 3101.2474367737523
*CLoad
loadpoints-3, 3, 3059.3386876281606
*CLoad
loadpoints-4, 3, 3017.4299384825695
*CLoad
loadpoints-5, 3, 2975.5211893369783
*CLoad
loadpoints-6, 3, 2933.612440191387
*CLoad
loadpoints-7, 3, 2891.703691045796
*CLoad
loadpoints-8, 3, 2849.794941900205
*CLoad
loadpoints-9, 3, 2807.886192754613
*CLoad
loadpoints-10, 3, 2765.9774436090224
*CLoad
loadpoints-11, 3, 2724.068694463431
*CLoad
loadpoints-12, 3, 2682.1599453178396
*CLoad
loadpoints-13, 3, 2640.2511961722485
*CLoad
loadpoints-14, 3, 2598.3424470266573
*CLoad
loadpoints-15, 3, 2556.4336978810657
*CLoad
loadpoints-16, 3, 2514.524948735475
*CLoad
loadpoints-17, 3, 2472.6161995898833
*CLoad
loadpoints-18, 3, 2430.707450444292
*CLoad
loadpoints-19, 3, 2388.798701298701
*CLoad
loadpoints-20, 3, 2346.88995215311
*CLoad
loadpoints-21, 3, 2304.981203007518
*CLoad
loadpoints-22, 3, 2263.072453861927
*CLoad
loadpoints-23, 3, 2221.1637047163363
*CLoad
loadpoints-24, 3, 2179.2549555707446
*CLoad
loadpoints-25, 3, 2137.3462064251535
*CLoad
loadpoints-26, 3, 2095.437457279562
*CLoad
loadpoints-27, 3, 2053.528708133971
*CLoad
loadpoints-28, 3, 2011.6199589883797
*CLoad
loadpoints-29, 3, 1969.7112098427885
*CLoad
loadpoints-30, 3, 1927.8024606971971
*CLoad
loadpoints-31, 3, 1885.893711551606
*CLoad
loadpoints-32, 3, 1843.9849624060148
*CLoad
loadpoints-33, 3, 1802.0762132604234
*CLoad
loadpoints-34, 3, 1760.167464114832
*CLoad
loadpoints-35, 3, 1718.258714969241
*CLoad
loadpoints-36, 3, 1676.3499658236497
*CLoad
loadpoints-37, 3, 1634.4412166780583
*CLoad
loadpoints-38, 3, 1592.5324675324673
*CLoad
loadpoints-39, 3, 1550.623718386876
*CLoad
loadpoints-40, 3, 1508.714969241285
*CLoad
loadpoints-41, 3, 1466.8062200956936
*CLoad
loadpoints-42, 3, 1424.8974709501022
*CLoad
loadpoints-43, 3, 1382.9887218045112
*CLoad
loadpoints-44, 3, 1341.0799726589198
*CLoad
loadpoints-45, 3, 1299.1712235133284
*CLoad
loadpoints-46, 3, 1257.2624743677375
*CLoad
loadpoints-47, 3, 1215.353725222146
*CLoad
loadpoints-48, 3, 1173.4449760765547
*CLoad
loadpoints-49, 3, 1131.5362269309633
*CLoad
loadpoints-50, 3, 1089.6274777853723
*CLoad
loadpoints-51, 3, 1047.718728639781
*CLoad
loadpoints-52, 3, 1005.8099794941895
*CLoad
loadpoints-53, 3, 963.9012303485985
*CLoad
loadpoints-54, 3, 921.9924812030074
*CLoad
loadpoints-55, 3, 880.083732057416
*CLoad
loadpoints-56, 3, 838.174982911825
*CLoad
loadpoints-57, 3, 796.2662337662337
*CLoad
loadpoints-58, 3, 754.3574846206423
*CLoad
loadpoints-59, 3, 712.4487354750513
*CLoad
loadpoints-60, 3, 670.5399863294599
*CLoad
loadpoints-61, 3, 628.6312371838685
*CLoad
loadpoints-62, 3, 586.7224880382774
*CLoad
loadpoints-63, 3, 544.8137388926862
*CLoad
loadpoints-64, 3, 502.90498974709476
*CLoad
loadpoints-65, 3, 460.9962406015037
*CLoad
loadpoints-66, 3, 419.08749145591236
*CLoad
loadpoints-67, 3, 377.17874231032096
*CLoad
loadpoints-68, 3, 335.2699931647296
*CLoad
loadpoints-69, 3, 293.36124401913855
*CLoad
loadpoints-70, 3, 251.45249487354718
*CLoad
loadpoints-71, 3, 209.5437457279558
*CLoad
loadpoints-72, 3, 167.6349965823648
*CLoad
loadpoints-73, 3, 125.72624743677342
*CLoad
loadpoints-74, 3, 83.81749829118205
*CLoad
loadpoints-75, 3, 41.90874914559137
*CLoad
engine_0_mass, 3, -9810.0
*Output, NAME=field-output, FIELD, VARIABLE=PRESELECT
*Output, NAME=history-output, HISTORY, VARIABLE=PRESELECT
*End Step
